<?xml version="1.0" encoding="UTF-8"?>
<!DOCTYPE transitSchedule SYSTEM "http://www.matsim.org/files/dtd/transitSchedule_v1.dtd">

<transitSchedule>
	<transitStops>
		<stopFacility id="ALAMOS1" x="1062683.3841409932" y="877082.6972831498" linkRefId="47-ALAMOS1" name="Alamos A1" isBlocking="true"/>
		<stopFacility id="ALAMOS2" x="1062698.5558593157" y="877107.9559569778" linkRefId="47-ALAMOS2" name="Alamos B1" isBlocking="true"/>
		<stopFacility id="BUITRE1" x="1059733.605234052" y="864703.9549159982" linkRefId="2-BUITRE1" name="Buitrera A1" isBlocking="true"/>
		<stopFacility id="BUITRE2" x="1059680.243567798" y="864736.3627927025" linkRefId="2-BUITRE2" name="Buitrera B1" isBlocking="true"/>
		<stopFacility id="CAICED1" x="1060690.0790887089" y="873537.1408338097" linkRefId="42-CAICED1" name="Plaza de Caicedo A1" isBlocking="true"/>
		<stopFacility id="CALDAS1" x="1059065.6788703888" y="867105.4496556506" linkRefId="5-CALDAS1" name="Caldas A1" isBlocking="true"/>
		<stopFacility id="CALDAS2" x="1059084.587829866" y="867074.8650553474" linkRefId="5-CALDAS2" name="Caldas B1" isBlocking="true"/>
		<stopFacility id="CAPRI2" x="1059198.8712468848" y="866393.3685526713" linkRefId="4-CAPRI2" name="Capri B1" isBlocking="true"/>
		<stopFacility id="CAPRI3" x="1059177.5760225898" y="866383.772628948" linkRefId="4-CAPRI3" name="Capri A2" isBlocking="true"/>
		<stopFacility id="CENTRO1" x="1060823.1162760358" y="873112.5771166869" linkRefId="28-CENTRO1" name="Centro A1" isBlocking="true"/>
		<stopFacility id="CHIMI2" x="1064384.834735534" y="876767.6435361622" linkRefId="38-CHIMI2" name="Chiminangos B1" isBlocking="true"/>
		<stopFacility id="CHIMI3" x="1064403.1484273386" y="876802.3040910645" linkRefId="38-CHIMI3" name="Chiminangos A2" isBlocking="true"/>
		<stopFacility id="ERMI1" x="1060652.4027622112" y="873674.242572993" linkRefId="29-ERMI1" name="La Ermita A1" isBlocking="true"/>
		<stopFacility id="ESTAD2" x="1059383.0624332854" y="871248.8032022055" linkRefId="11-ESTAD2" name="Estadio B1" isBlocking="true"/>
		<stopFacility id="ESTAD3" x="1059348.4410272348" y="871227.035501775" linkRefId="11-ESTAD3" name="Estadio A2" isBlocking="true"/>
		<stopFacility id="FATI1" x="1062225.4993782195" y="874697.1345282773" linkRefId="33-FATI1" name="Fatima A1" isBlocking="true"/>
		<stopFacility id="FATI2" x="1062258.2749723662" y="874706.7381679" linkRefId="33-FATI2" name="Fatima B1" isBlocking="true"/>
		<stopFacility id="FLORAI1" x="1063907.058828358" y="876391.4574617113" linkRefId="37-FLORAI1" name="Flora Industrial A1" isBlocking="true"/>
		<stopFacility id="FLORAI2" x="1063938.5325792835" y="876408.3406906935" linkRefId="37-FLORAI2" name="Flora Industrial B1" isBlocking="true"/>
		<stopFacility id="FRAY1" x="1060956.3851866587" y="872607.2876922345" linkRefId="27-FRAY1" name="Fray Damian A1" isBlocking="true"/>
		<stopFacility id="L.AMERI1" x="1061359.9978111857" y="874765.9264792587" linkRefId="44-L.AMERI1" name="Las Americas A1" isBlocking="true"/>
		<stopFacility id="L.AMERI2" x="1061378.5037763189" y="874789.5280346267" linkRefId="44-L.AMERI2" name="Las Americas B1" isBlocking="true"/>
		<stopFacility id="LIDO1" x="1058797.6544414326" y="869831.9099137343" linkRefId="9-LIDO1" name="Lido A1" isBlocking="true"/>
		<stopFacility id="LIDO4" x="1058816.161732224" y="869857.9071071988" linkRefId="9-LIDO4" name="Lido B2" isBlocking="true"/>
		<stopFacility id="MANZA2" x="1059626.7942483681" y="871587.5075363994" linkRefId="12-MANZA2" name="Manzana del Saber B1" isBlocking="true"/>
		<stopFacility id="MANZA3" x="1059592.9104108866" y="871570.5328168174" linkRefId="12-MANZA3" name="Manzana del Saber A2" isBlocking="true"/>
		<stopFacility id="MELEN1" x="1059424.0139522746" y="865198.6432930572" linkRefId="3-MELEN1" name="Melendez A1" isBlocking="true"/>
		<stopFacility id="MELEN2" x="1059422.6990015432" y="865231.4492219174" linkRefId="3-MELEN2" name="Melendez B1" isBlocking="true"/>
		<stopFacility id="MZAN1" x="1062679.2237342065" y="875055.1417206473" linkRefId="34-MZAN1" name="Manzanares A1" isBlocking="true"/>
		<stopFacility id="MZAN2" x="1062703.102252414" y="875076.7197645896" linkRefId="34-MZAN2" name="Manzanares B1" isBlocking="true"/>
		<stopFacility id="PAMPA1" x="1058967.3171867272" y="868138.055781938" linkRefId="7-PAMPA1" name="Pampalinda A1" isBlocking="true"/>
		<stopFacility id="PAMPA2" x="1058977.4866664696" y="868168.2881219522" linkRefId="7-PAMPA2" name="Pampalinda B1" isBlocking="true"/>
		<stopFacility id="PILOT2" x="1061691.9174659087" y="874392.9007823528" linkRefId="32-PILOT2" name="Piloto B1" isBlocking="true"/>
		<stopFacility id="PLATOR1" x="1058901.385556174" y="868802.7160286538" linkRefId="8-PLATOR1" name="Plaza de Toros A1" isBlocking="true"/>
		<stopFacility id="PLATOR2" x="1058903.0363086676" y="868832.1132071682" linkRefId="8-PLATOR2" name="Plaza de Toros B1" isBlocking="true"/>
		<stopFacility id="POPU1" x="1062962.179566718" y="875425.2132751845" linkRefId="35-POPU1" name="Popular A1" isBlocking="true"/>
		<stopFacility id="POPU4" x="1062997.910467324" y="875448.2725874565" linkRefId="35-POPU4" name="Popular B2" isBlocking="true"/>
		<stopFacility id="PRADNOR1" x="1061982.5023056758" y="875968.887609364" linkRefId="45-PRADNOR1" name="Prados del Norte A1" isBlocking="true"/>
		<stopFacility id="PRADNOR2" x="1062007.1365699624" y="875965.5846379262" linkRefId="45-PRADNOR2" name="Prados del Norte B1" isBlocking="true"/>
		<stopFacility id="PTCUY2" x="1061087.7677573313" y="873128.2112129917" linkRefId="24-PTCUY2" name="Petecuy B1" isBlocking="true"/>
		<stopFacility id="PTCUY6" x="1061051.5931160476" y="873230.8493450934" linkRefId="24-PTCUY6" name="Petecuy B3" isBlocking="true"/>
		<stopFacility id="REFUG1" x="1059012.720447864" y="867585.780771436" linkRefId="6-REFUG1" name="Refugio A1" isBlocking="true"/>
		<stopFacility id="REFUG2" x="1059019.646646902" y="867621.1091984339" linkRefId="6-REFUG2" name="Refugio B1" isBlocking="true"/>
		<stopFacility id="RIOC1" x="1061356.3071620993" y="874424.589576222" linkRefId="30-RIOC1" name="Rio Cali A1" isBlocking="true"/>
		<stopFacility id="SALOM1" x="1063399.3542951406" y="875884.9517963653" linkRefId="36-SALOM1" name="Salomia A1" isBlocking="true"/>
		<stopFacility id="SALOM2" x="1063443.2322904652" y="875910.0443283105" linkRefId="36-SALOM2" name="Salomia B1" isBlocking="true"/>
		<stopFacility id="SANBO2" x="1060554.9652020135" y="872413.1685252305" linkRefId="14-SANBO2" name="San Bosco B1" isBlocking="true"/>
		<stopFacility id="SANBO3" x="1060522.185637673" y="872409.0947205096" linkRefId="14-SANBO3" name="San Bosco A2" isBlocking="true"/>
		<stopFacility id="SANIC2" x="1061330.4957794505" y="874221.4691969822" linkRefId="31-SANIC2" name="San Nicolas B1" isBlocking="true"/>
		<stopFacility id="SANPAS2" x="1061093.804768889" y="872456.4204701837" linkRefId="15-SANPAS2" name="San Pascual B1" isBlocking="true"/>
		<stopFacility id="SANPED2" x="1060844.8036241638" y="873724.3003668508" linkRefId="25-SANPED2" name="San Pedro B1" isBlocking="true"/>
		<stopFacility id="SNTLIB2" x="1060042.8439051313" y="872121.6751713105" linkRefId="13-SNTLIB2" name="Santa Librada B1" isBlocking="true"/>
		<stopFacility id="SNTLIB3" x="1060019.8916215443" y="872096.9645308293" linkRefId="13-SNTLIB3" name="Santa Librada A2" isBlocking="true"/>
		<stopFacility id="SUCRE2" x="1061259.2289943716" y="872558.2526807339" linkRefId="23-SUCRE2" name="Sucre B1" isBlocking="true"/>
		<stopFacility id="TEQUE1" x="1058948.6889117295" y="870346.7570735915" linkRefId="10-TEQUE1" name="Tequendama A1" isBlocking="true"/>
		<stopFacility id="TEQUE4" x="1058968.4909850054" y="870374.2291031774" linkRefId="10-TEQUE4" name="Tequendama B2" isBlocking="true"/>
		<stopFacility id="TMENGA5" x="1063286.2612031105" y="877616.9952754494" linkRefId="56-TMENGA5" name="Terminal Menga B1" isBlocking="true"/>
		<stopFacility id="TMENGA7" x="1063203.090529292" y="877642.0110355464" linkRefId="56-TMENGA7" name="Terminal Menga B3" isBlocking="true"/>
		<stopFacility id="TORRE2" x="1060804.8160912883" y="874017.1386493202" linkRefId="26-TORRE2" name="Torre de Cali B1" isBlocking="true"/>
		<stopFacility id="TORRE3" x="1060779.4549112467" y="873995.0073708306" linkRefId="26-TORRE3" name="Torre de Cali A2" isBlocking="true"/>
		<stopFacility id="TORRE4" x="1060833.6844881533" y="874058.2558077937" linkRefId="26-TORRE4" name="Torre de Cali B2" isBlocking="true"/>
		<stopFacility id="UDP3" x="1058781.4124867138" y="869392.8866009545" linkRefId="40-UDP3" name="Unidad Deportiva A2" isBlocking="true"/>
		<stopFacility id="UDP4" x="1058816.229041904" y="869398.6184699709" linkRefId="40-UDP4" name="Unidad Deportiva B2" isBlocking="true"/>
		<stopFacility id="UDP6" x="1058810.4616044548" y="869446.9035598026" linkRefId="40-UDP6" name="Unidad Deportiva B3" isBlocking="true"/>
		<stopFacility id="UNIV1" x="1060927.887437057" y="864093.0954880253" linkRefId="39-UNIV1" name="Universidades A1" isBlocking="true"/>
		<stopFacility id="UNIV4" x="1060911.9475632065" y="864112.8068328516" linkRefId="39-UNIV4" name="Universidades B2" isBlocking="true"/>
		<stopFacility id="UNIVAL1" x="1060108.2366174238" y="864499.7683060529" linkRefId="1-UNIVAL1" name="Univalle A1" isBlocking="true"/>
		<stopFacility id="UNIVAL2" x="1060083.0277623257" y="864532.744564115" linkRefId="1-UNIVAL2" name="Univalle B1" isBlocking="true"/>
		<stopFacility id="VERSALL1" x="1061160.8688310373" y="874504.2808343425" linkRefId="43-VERSALL1" name="Versalles A1" isBlocking="true"/>
		<stopFacility id="VERSALL2" x="1061182.8998624007" y="874519.9588674709" linkRefId="43-VERSALL2" name="Versalles B1" isBlocking="true"/>
		<stopFacility id="VIPASA1" x="1062275.7730196577" y="876433.8807725962" linkRefId="46-VIPASA1" name="Vipasa A1" isBlocking="true"/>
		<stopFacility id="VIPASA2" x="1062294.8376675176" y="876451.4008058603" linkRefId="46-VIPASA2" name="Vipasa B1" isBlocking="true"/>
	</transitStops>
	<transitLine id="E21">
		<transitRoute id="Ida">
			<transportMode>bus</transportMode>
			<routeProfile>
				<stop refId="UNIV4" arrivalOffset="00:00:00" departureOffset="00:00:00" awaitDeparture="true"/>
				<stop refId="BUITRE2" arrivalOffset="00:00:00" departureOffset="00:00:00" awaitDeparture="true"/>
				<stop refId="MELEN2" arrivalOffset="00:00:00" departureOffset="00:00:00" awaitDeparture="true"/>
				<stop refId="CAPRI2" arrivalOffset="00:00:00" departureOffset="00:00:00" awaitDeparture="true"/>
				<stop refId="CALDAS2" arrivalOffset="00:00:00" departureOffset="00:00:00" awaitDeparture="true"/>
				<stop refId="PAMPA2" arrivalOffset="00:00:00" departureOffset="00:00:00" awaitDeparture="true"/>
				<stop refId="UDP6" arrivalOffset="00:00:00" departureOffset="00:00:00" awaitDeparture="true"/>
				<stop refId="TEQUE4" arrivalOffset="00:00:00" departureOffset="00:00:00" awaitDeparture="true"/>
				<stop refId="ESTAD2" arrivalOffset="00:00:00" departureOffset="00:00:00" awaitDeparture="true"/>
				<stop refId="SANBO2" arrivalOffset="00:00:00" departureOffset="00:00:00" awaitDeparture="true"/>
				<stop refId="SANPAS2" arrivalOffset="00:00:00" departureOffset="00:00:00" awaitDeparture="true"/>
				<stop refId="PTCUY6" arrivalOffset="00:00:00" departureOffset="00:00:00" awaitDeparture="true"/>
				<stop refId="TORRE4" arrivalOffset="00:00:00" departureOffset="00:00:00" awaitDeparture="true"/>
				<stop refId="VERSALL2" arrivalOffset="00:00:00" departureOffset="00:00:00" awaitDeparture="true"/>
				<stop refId="L.AMERI2" arrivalOffset="00:00:00" departureOffset="00:00:00" awaitDeparture="true"/>
				<stop refId="PRADNOR2" arrivalOffset="00:00:00" departureOffset="00:00:00" awaitDeparture="true"/>
				<stop refId="VIPASA2" arrivalOffset="00:00:00" departureOffset="00:00:00" awaitDeparture="true"/>
				<stop refId="ALAMOS2" arrivalOffset="00:00:00" departureOffset="00:00:00" awaitDeparture="true"/>
				<stop refId="TMENGA5" arrivalOffset="00:00:00" departureOffset="00:00:00" awaitDeparture="true"/>
			</routeProfile>
			<route>
				<link refId="39-UNIV4"/>
				<link refId="UNIV4-39"/>
				<link refId="39-2"/>
				<link refId="2-BUITRE2"/>
				<link refId="BUITRE2-2"/>
				<link refId="2-3"/>
				<link refId="3-MELEN2"/>
				<link refId="MELEN2-3"/>
				<link refId="3-4"/>
				<link refId="4-CAPRI2"/>
				<link refId="CAPRI2-4"/>
				<link refId="4-5"/>
				<link refId="5-CALDAS2"/>
				<link refId="CALDAS2-5"/>
				<link refId="5-7"/>
				<link refId="7-PAMPA2"/>
				<link refId="PAMPA2-7"/>
				<link refId="7-40"/>
				<link refId="40-UDP6"/>
				<link refId="UDP6-40"/>
				<link refId="40-10"/>
				<link refId="10-TEQUE4"/>
				<link refId="TEQUE4-10"/>
				<link refId="10-11"/>
				<link refId="11-ESTAD2"/>
				<link refId="ESTAD2-11"/>
				<link refId="11-14"/>
				<link refId="14-SANBO2"/>
				<link refId="SANBO2-14"/>
				<link refId="14-15"/>
				<link refId="15-SANPAS2"/>
				<link refId="SANPAS2-15"/>
				<link refId="15-24"/>
				<link refId="24-PTCUY6"/>
				<link refId="PTCUY6-24"/>
				<link refId="24-26"/>
				<link refId="26-TORRE4"/>
				<link refId="TORRE4-26"/>
				<link refId="26-43"/>
				<link refId="43-VERSALL2"/>
				<link refId="VERSALL2-43"/>
				<link refId="43-44"/>
				<link refId="44-L.AMERI2"/>
				<link refId="L.AMERI2-44"/>
				<link refId="44-45"/>
				<link refId="45-PRADNOR2"/>
				<link refId="PRADNOR2-45"/>
				<link refId="45-46"/>
				<link refId="46-VIPASA2"/>
				<link refId="VIPASA2-46"/>
				<link refId="46-47"/>
				<link refId="47-ALAMOS2"/>
				<link refId="ALAMOS2-47"/>
				<link refId="47-56"/>
				<link refId="56-TMENGA5"/>
				<link refId="TMENGA5-56"/>
			</route>
			<departures>
				<departure id="1" departureTime="05:00:00" vehicleRefId="E21_1"/>
				<departure id="10" departureTime="05:47:42" vehicleRefId="E21_10"/>
				<departure id="100" departureTime="13:47:36" vehicleRefId="E21_4"/>
				<departure id="101" departureTime="13:54:18" vehicleRefId="E21_5"/>
				<departure id="102" departureTime="14:01:00" vehicleRefId="E21_6"/>
				<departure id="103" departureTime="14:07:42" vehicleRefId="E21_7"/>
				<departure id="104" departureTime="14:14:24" vehicleRefId="E21_8"/>
				<departure id="105" departureTime="14:21:06" vehicleRefId="E21_9"/>
				<departure id="106" departureTime="14:27:48" vehicleRefId="E21_10"/>
				<departure id="107" departureTime="14:34:30" vehicleRefId="E21_11"/>
				<departure id="108" departureTime="14:41:12" vehicleRefId="E21_12"/>
				<departure id="109" departureTime="14:47:54" vehicleRefId="E21_13"/>
				<departure id="11" departureTime="05:53:00" vehicleRefId="E21_11"/>
				<departure id="110" departureTime="14:54:36" vehicleRefId="E21_14"/>
				<departure id="111" departureTime="15:01:18" vehicleRefId="E21_15"/>
				<departure id="112" departureTime="15:08:00" vehicleRefId="E21_16"/>
				<departure id="113" departureTime="15:14:42" vehicleRefId="E21_17"/>
				<departure id="114" departureTime="15:21:24" vehicleRefId="E21_18"/>
				<departure id="115" departureTime="15:28:06" vehicleRefId="E21_19"/>
				<departure id="116" departureTime="15:34:48" vehicleRefId="E21_20"/>
				<departure id="117" departureTime="15:41:30" vehicleRefId="E21_21"/>
				<departure id="118" departureTime="15:48:12" vehicleRefId="E21_22"/>
				<departure id="119" departureTime="15:54:54" vehicleRefId="E21_23"/>
				<departure id="12" departureTime="05:58:18" vehicleRefId="E21_12"/>
				<departure id="120" departureTime="16:01:36" vehicleRefId="E21_24"/>
				<departure id="121" departureTime="16:05:36" vehicleRefId="E21_25"/>
				<departure id="122" departureTime="16:09:36" vehicleRefId="E21_26"/>
				<departure id="123" departureTime="16:13:36" vehicleRefId="E21_27"/>
				<departure id="124" departureTime="16:17:36" vehicleRefId="E21_28"/>
				<departure id="125" departureTime="16:21:36" vehicleRefId="E21_29"/>
				<departure id="126" departureTime="16:25:36" vehicleRefId="E21_30"/>
				<departure id="127" departureTime="16:29:36" vehicleRefId="E21_31"/>
				<departure id="128" departureTime="16:33:36" vehicleRefId="E21_1"/>
				<departure id="129" departureTime="16:37:36" vehicleRefId="E21_1"/>
				<departure id="13" departureTime="06:01:51" vehicleRefId="E21_13"/>
				<departure id="130" departureTime="16:41:36" vehicleRefId="E21_2"/>
				<departure id="131" departureTime="16:45:36" vehicleRefId="E21_3"/>
				<departure id="132" departureTime="16:49:36" vehicleRefId="E21_4"/>
				<departure id="133" departureTime="16:53:36" vehicleRefId="E21_5"/>
				<departure id="134" departureTime="16:57:36" vehicleRefId="E21_6"/>
				<departure id="135" departureTime="17:01:36" vehicleRefId="E21_7"/>
				<departure id="136" departureTime="17:05:36" vehicleRefId="E21_8"/>
				<departure id="137" departureTime="17:09:36" vehicleRefId="E21_9"/>
				<departure id="138" departureTime="17:13:36" vehicleRefId="E21_10"/>
				<departure id="139" departureTime="17:17:36" vehicleRefId="E21_11"/>
				<departure id="14" departureTime="06:05:24" vehicleRefId="E21_14"/>
				<departure id="140" departureTime="17:21:36" vehicleRefId="E21_12"/>
				<departure id="141" departureTime="17:25:36" vehicleRefId="E21_13"/>
				<departure id="142" departureTime="17:29:36" vehicleRefId="E21_14"/>
				<departure id="143" departureTime="17:33:36" vehicleRefId="E21_15"/>
				<departure id="144" departureTime="17:37:36" vehicleRefId="E21_16"/>
				<departure id="145" departureTime="17:41:36" vehicleRefId="E21_17"/>
				<departure id="146" departureTime="17:45:36" vehicleRefId="E21_18"/>
				<departure id="147" departureTime="17:49:36" vehicleRefId="E21_19"/>
				<departure id="148" departureTime="17:53:36" vehicleRefId="E21_20"/>
				<departure id="149" departureTime="17:57:36" vehicleRefId="E21_21"/>
				<departure id="15" departureTime="06:08:57" vehicleRefId="E21_15"/>
				<departure id="150" departureTime="18:01:36" vehicleRefId="E21_22"/>
				<departure id="151" departureTime="18:05:36" vehicleRefId="E21_23"/>
				<departure id="152" departureTime="18:09:36" vehicleRefId="E21_24"/>
				<departure id="153" departureTime="18:13:36" vehicleRefId="E21_25"/>
				<departure id="154" departureTime="18:17:36" vehicleRefId="E21_26"/>
				<departure id="155" departureTime="18:21:36" vehicleRefId="E21_27"/>
				<departure id="156" departureTime="18:25:36" vehicleRefId="E21_28"/>
				<departure id="157" departureTime="18:29:36" vehicleRefId="E21_29"/>
				<departure id="158" departureTime="18:33:36" vehicleRefId="E21_30"/>
				<departure id="159" departureTime="18:37:36" vehicleRefId="E21_31"/>
				<departure id="16" departureTime="06:12:30" vehicleRefId="E21_16"/>
				<departure id="160" departureTime="18:41:36" vehicleRefId="E21_1"/>
				<departure id="161" departureTime="18:45:36" vehicleRefId="E21_1"/>
				<departure id="162" departureTime="18:49:36" vehicleRefId="E21_2"/>
				<departure id="163" departureTime="18:53:36" vehicleRefId="E21_3"/>
				<departure id="164" departureTime="18:57:36" vehicleRefId="E21_4"/>
				<departure id="165" departureTime="19:01:36" vehicleRefId="E21_5"/>
				<departure id="166" departureTime="19:08:18" vehicleRefId="E21_6"/>
				<departure id="167" departureTime="19:15:00" vehicleRefId="E21_7"/>
				<departure id="168" departureTime="19:21:42" vehicleRefId="E21_8"/>
				<departure id="169" departureTime="19:28:24" vehicleRefId="E21_9"/>
				<departure id="17" departureTime="06:16:03" vehicleRefId="E21_17"/>
				<departure id="170" departureTime="19:35:06" vehicleRefId="E21_10"/>
				<departure id="171" departureTime="19:41:48" vehicleRefId="E21_11"/>
				<departure id="172" departureTime="19:48:30" vehicleRefId="E21_12"/>
				<departure id="173" departureTime="19:55:12" vehicleRefId="E21_13"/>
				<departure id="174" departureTime="20:01:54" vehicleRefId="E21_14"/>
				<departure id="175" departureTime="20:06:48" vehicleRefId="E21_15"/>
				<departure id="176" departureTime="20:11:42" vehicleRefId="E21_16"/>
				<departure id="177" departureTime="20:16:36" vehicleRefId="E21_17"/>
				<departure id="178" departureTime="20:21:30" vehicleRefId="E21_18"/>
				<departure id="179" departureTime="20:26:24" vehicleRefId="E21_19"/>
				<departure id="18" departureTime="06:19:36" vehicleRefId="E21_18"/>
				<departure id="180" departureTime="20:31:18" vehicleRefId="E21_20"/>
				<departure id="181" departureTime="20:36:12" vehicleRefId="E21_21"/>
				<departure id="182" departureTime="20:41:06" vehicleRefId="E21_22"/>
				<departure id="183" departureTime="20:46:00" vehicleRefId="E21_23"/>
				<departure id="184" departureTime="20:50:54" vehicleRefId="E21_24"/>
				<departure id="185" departureTime="20:55:48" vehicleRefId="E21_25"/>
				<departure id="186" departureTime="21:00:42" vehicleRefId="E21_26"/>
				<departure id="187" departureTime="21:06:42" vehicleRefId="E21_27"/>
				<departure id="188" departureTime="21:12:42" vehicleRefId="E21_28"/>
				<departure id="189" departureTime="21:18:42" vehicleRefId="E21_29"/>
				<departure id="19" departureTime="06:23:09" vehicleRefId="E21_19"/>
				<departure id="190" departureTime="21:24:42" vehicleRefId="E21_30"/>
				<departure id="191" departureTime="21:30:42" vehicleRefId="E21_31"/>
				<departure id="192" departureTime="21:36:42" vehicleRefId="E21_1"/>
				<departure id="193" departureTime="21:42:42" vehicleRefId="E21_1"/>
				<departure id="194" departureTime="21:48:42" vehicleRefId="E21_2"/>
				<departure id="195" departureTime="21:54:42" vehicleRefId="E21_3"/>
				<departure id="196" departureTime="22:00:42" vehicleRefId="E21_4"/>
				<departure id="197" departureTime="22:06:42" vehicleRefId="E21_5"/>
				<departure id="198" departureTime="22:12:42" vehicleRefId="E21_6"/>
				<departure id="199" departureTime="22:18:42" vehicleRefId="E21_7"/>
				<departure id="2" departureTime="05:05:18" vehicleRefId="E21_2"/>
				<departure id="20" departureTime="06:26:42" vehicleRefId="E21_20"/>
				<departure id="200" departureTime="22:24:42" vehicleRefId="E21_8"/>
				<departure id="201" departureTime="22:30:42" vehicleRefId="E21_9"/>
				<departure id="202" departureTime="22:36:42" vehicleRefId="E21_10"/>
				<departure id="203" departureTime="22:42:42" vehicleRefId="E21_11"/>
				<departure id="204" departureTime="22:48:42" vehicleRefId="E21_12"/>
				<departure id="205" departureTime="22:54:42" vehicleRefId="E21_13"/>
				<departure id="206" departureTime="23:00:42" vehicleRefId="E21_14"/>
				<departure id="21" departureTime="06:30:15" vehicleRefId="E21_21"/>
				<departure id="22" departureTime="06:33:48" vehicleRefId="E21_22"/>
				<departure id="23" departureTime="06:37:21" vehicleRefId="E21_23"/>
				<departure id="24" departureTime="06:40:54" vehicleRefId="E21_24"/>
				<departure id="25" departureTime="06:44:27" vehicleRefId="E21_25"/>
				<departure id="26" departureTime="06:48:00" vehicleRefId="E21_26"/>
				<departure id="27" departureTime="06:51:33" vehicleRefId="E21_27"/>
				<departure id="28" departureTime="06:55:06" vehicleRefId="E21_28"/>
				<departure id="29" departureTime="06:58:39" vehicleRefId="E21_29"/>
				<departure id="3" departureTime="05:10:36" vehicleRefId="E21_3"/>
				<departure id="30" departureTime="07:02:12" vehicleRefId="E21_30"/>
				<departure id="31" departureTime="07:05:45" vehicleRefId="E21_31"/>
				<departure id="32" departureTime="07:09:18" vehicleRefId="E21_1"/>
				<departure id="33" departureTime="07:12:51" vehicleRefId="E21_1"/>
				<departure id="34" departureTime="07:16:24" vehicleRefId="E21_2"/>
				<departure id="35" departureTime="07:19:57" vehicleRefId="E21_3"/>
				<departure id="36" departureTime="07:23:30" vehicleRefId="E21_4"/>
				<departure id="37" departureTime="07:27:03" vehicleRefId="E21_5"/>
				<departure id="38" departureTime="07:30:36" vehicleRefId="E21_6"/>
				<departure id="39" departureTime="07:34:09" vehicleRefId="E21_7"/>
				<departure id="4" departureTime="05:15:54" vehicleRefId="E21_4"/>
				<departure id="40" departureTime="07:37:42" vehicleRefId="E21_8"/>
				<departure id="41" departureTime="07:41:15" vehicleRefId="E21_9"/>
				<departure id="42" departureTime="07:44:48" vehicleRefId="E21_10"/>
				<departure id="43" departureTime="07:48:21" vehicleRefId="E21_11"/>
				<departure id="44" departureTime="07:51:54" vehicleRefId="E21_12"/>
				<departure id="45" departureTime="07:55:27" vehicleRefId="E21_13"/>
				<departure id="46" departureTime="07:59:00" vehicleRefId="E21_14"/>
				<departure id="47" departureTime="08:04:30" vehicleRefId="E21_15"/>
				<departure id="48" departureTime="08:10:00" vehicleRefId="E21_16"/>
				<departure id="49" departureTime="08:15:30" vehicleRefId="E21_17"/>
				<departure id="5" departureTime="05:21:12" vehicleRefId="E21_5"/>
				<departure id="50" departureTime="08:21:00" vehicleRefId="E21_18"/>
				<departure id="51" departureTime="08:26:30" vehicleRefId="E21_19"/>
				<departure id="52" departureTime="08:32:00" vehicleRefId="E21_20"/>
				<departure id="53" departureTime="08:37:30" vehicleRefId="E21_21"/>
				<departure id="54" departureTime="08:43:00" vehicleRefId="E21_22"/>
				<departure id="55" departureTime="08:48:30" vehicleRefId="E21_23"/>
				<departure id="56" departureTime="08:54:00" vehicleRefId="E21_24"/>
				<departure id="57" departureTime="08:59:30" vehicleRefId="E21_25"/>
				<departure id="58" departureTime="09:06:12" vehicleRefId="E21_26"/>
				<departure id="59" departureTime="09:12:54" vehicleRefId="E21_27"/>
				<departure id="6" departureTime="05:26:30" vehicleRefId="E21_6"/>
				<departure id="60" departureTime="09:19:36" vehicleRefId="E21_28"/>
				<departure id="61" departureTime="09:26:18" vehicleRefId="E21_29"/>
				<departure id="62" departureTime="09:33:00" vehicleRefId="E21_30"/>
				<departure id="63" departureTime="09:39:42" vehicleRefId="E21_31"/>
				<departure id="64" departureTime="09:46:24" vehicleRefId="E21_1"/>
				<departure id="65" departureTime="09:53:06" vehicleRefId="E21_1"/>
				<departure id="66" departureTime="09:59:48" vehicleRefId="E21_2"/>
				<departure id="67" departureTime="10:06:30" vehicleRefId="E21_3"/>
				<departure id="68" departureTime="10:13:12" vehicleRefId="E21_4"/>
				<departure id="69" departureTime="10:19:54" vehicleRefId="E21_5"/>
				<departure id="7" departureTime="05:31:48" vehicleRefId="E21_7"/>
				<departure id="70" departureTime="10:26:36" vehicleRefId="E21_6"/>
				<departure id="71" departureTime="10:33:18" vehicleRefId="E21_7"/>
				<departure id="72" departureTime="10:40:00" vehicleRefId="E21_8"/>
				<departure id="73" departureTime="10:46:42" vehicleRefId="E21_9"/>
				<departure id="74" departureTime="10:53:24" vehicleRefId="E21_10"/>
				<departure id="75" departureTime="11:00:06" vehicleRefId="E21_11"/>
				<departure id="76" departureTime="11:06:48" vehicleRefId="E21_12"/>
				<departure id="77" departureTime="11:13:30" vehicleRefId="E21_13"/>
				<departure id="78" departureTime="11:20:12" vehicleRefId="E21_14"/>
				<departure id="79" departureTime="11:26:54" vehicleRefId="E21_15"/>
				<departure id="8" departureTime="05:37:06" vehicleRefId="E21_8"/>
				<departure id="80" departureTime="11:33:36" vehicleRefId="E21_16"/>
				<departure id="81" departureTime="11:40:18" vehicleRefId="E21_17"/>
				<departure id="82" departureTime="11:47:00" vehicleRefId="E21_18"/>
				<departure id="83" departureTime="11:53:42" vehicleRefId="E21_19"/>
				<departure id="84" departureTime="12:00:24" vehicleRefId="E21_20"/>
				<departure id="85" departureTime="12:07:06" vehicleRefId="E21_21"/>
				<departure id="86" departureTime="12:13:48" vehicleRefId="E21_22"/>
				<departure id="87" departureTime="12:20:30" vehicleRefId="E21_23"/>
				<departure id="88" departureTime="12:27:12" vehicleRefId="E21_24"/>
				<departure id="89" departureTime="12:33:54" vehicleRefId="E21_25"/>
				<departure id="9" departureTime="05:42:24" vehicleRefId="E21_9"/>
				<departure id="90" departureTime="12:40:36" vehicleRefId="E21_26"/>
				<departure id="91" departureTime="12:47:18" vehicleRefId="E21_27"/>
				<departure id="92" departureTime="12:54:00" vehicleRefId="E21_28"/>
				<departure id="93" departureTime="13:00:42" vehicleRefId="E21_29"/>
				<departure id="94" departureTime="13:07:24" vehicleRefId="E21_30"/>
				<departure id="95" departureTime="13:14:06" vehicleRefId="E21_31"/>
				<departure id="96" departureTime="13:20:48" vehicleRefId="E21_1"/>
				<departure id="97" departureTime="13:27:30" vehicleRefId="E21_1"/>
				<departure id="98" departureTime="13:34:12" vehicleRefId="E21_2"/>
				<departure id="99" departureTime="13:40:54" vehicleRefId="E21_3"/>
			</departures>
		</transitRoute>
		<transitRoute id="Vuelta">
			<transportMode>bus</transportMode>
			<routeProfile>
				<stop refId="TMENGA7" arrivalOffset="00:00:00" departureOffset="00:00:00" awaitDeparture="true"/>
				<stop refId="ALAMOS1" arrivalOffset="00:00:00" departureOffset="00:00:00" awaitDeparture="true"/>
				<stop refId="VIPASA1" arrivalOffset="00:00:00" departureOffset="00:00:00" awaitDeparture="true"/>
				<stop refId="PRADNOR1" arrivalOffset="00:00:00" departureOffset="00:00:00" awaitDeparture="true"/>
				<stop refId="L.AMERI1" arrivalOffset="00:00:00" departureOffset="00:00:00" awaitDeparture="true"/>
				<stop refId="VERSALL1" arrivalOffset="00:00:00" departureOffset="00:00:00" awaitDeparture="true"/>
				<stop refId="TORRE3" arrivalOffset="00:00:00" departureOffset="00:00:00" awaitDeparture="true"/>
				<stop refId="CAICED1" arrivalOffset="00:00:00" departureOffset="00:00:00" awaitDeparture="true"/>
				<stop refId="SANBO3" arrivalOffset="00:00:00" departureOffset="00:00:00" awaitDeparture="true"/>
				<stop refId="ESTAD3" arrivalOffset="00:00:00" departureOffset="00:00:00" awaitDeparture="true"/>
				<stop refId="TEQUE1" arrivalOffset="00:00:00" departureOffset="00:00:00" awaitDeparture="true"/>
				<stop refId="UDP3" arrivalOffset="00:00:00" departureOffset="00:00:00" awaitDeparture="true"/>
				<stop refId="PAMPA1" arrivalOffset="00:00:00" departureOffset="00:00:00" awaitDeparture="true"/>