<?xml version="1.0" encoding="UTF-8"?>
<!DOCTYPE transitSchedule SYSTEM "http://www.matsim.org/files/dtd/transitSchedule_v1.dtd">

<transitSchedule>
	<transitStops>
		<stopFacility id="1A" x="1059720.2435677939" y="864753.3628001736" linkRefId="1-11" name="1A" isBlocking="true"/>
		<stopFacility id="1B" x="1059694.6052340479" y="864698.9549234675" linkRefId="1-12" name="1B" isBlocking="true"/>
		<stopFacility id="2A" x="1060113.0277623218" y="864552.7445715738" linkRefId="2-21" name="2A" isBlocking="true"/>
		<stopFacility id="2B" x="1060082.2366174196" y="864499.7683135098" linkRefId="2-22" name="2B" isBlocking="true"/>
		<stopFacility id="3A" x="1060958.3197208308" y="864125.9293772681" linkRefId="3-31" name="3A" isBlocking="true"/>
		<stopFacility id="3B" x="1060921.3197208308" y="864075.9293772681" linkRefId="3-32" name="3B" isBlocking="true"/>
		<stopFacility id="Uno" x="1059710.8477143445" y="864723.4341702611" linkRefId="1-11" name="Uno central" isBlocking="true"/>
		<stopFacility id="Dos" x="1060098.5671258294" y="864518.5795635029" linkRefId="2-21" name="Dos central" isBlocking="true"/>
		<stopFacility id="Tres" x="1060942.3197208308" y="864096.9293772681" linkRefId="3-31" name="Tres central" isBlocking="true"/>
	</transitStops>
	<transitLine id="Lechera">
		<transitRoute id="1">
			<transportMode>pt</transportMode>
			<routeProfile>
				<stop refId="Uno" departureOffset="00:00:00" />
				<stop refId="Dos" arrivalOffset="00:00:30" />
			</routeProfile>
			<route>
				<link refId="1-11"/>
				<link refId="11-1"/>
				<link refId="1-2"/>
				<link refId="2-21"/>
				<link refId="21-2"/>
			</route>
			<departures>
				<departure id="1" departureTime="06:00:00" vehicleRefId="L1"/>
			</departures>
		</transitRoute>
		<transitRoute id="2">
			<transportMode>pt</transportMode>
			<routeProfile>
				<stop refId="Dos" departureOffset="00:00:00" />
				<stop refId="Tres" arrivalOffset="00:01:00" />
			</routeProfile>
			<route>
				<link refId="2-21"/>
				<link refId="21-2"/>
				<link refId="2-3"/>
				<link refId="3-31"/>
				<link refId="31-3"/>
			</route>
			<departures>
				<departure id="1" departureTime="06:10:00" vehicleRefId="L2"/>
			</departures>
		</transitRoute>
	</transitLine>
	<transitLine id="Directa">
		<transitRoute id="1">
			<transportMode>pt</transportMode>
			<routeProfile>
				<stop refId="Uno" departureOffset="00:00:00" />
				<stop refId="Tres" arrivalOffset="00:05:00" />
			</routeProfile>
			<route>
				<link refId="1-11"/>
				<link refId="11-1"/>
				<link refId="1-3"/>
				<link refId="3-31"/>
				<link refId="31-3"/>
			</route>
			<departures>
				<departure id="1" departureTime="06:40:00" vehicleRefId="D1"/>
			</departures>
		</transitRoute>
	</transitLine>
</transitSchedule>