<?xml version="1.0" encoding="UTF-8"?>
<!DOCTYPE network SYSTEM "http://www.matsim.org/files/dtd/network_v1.dtd">
<network>

<!-- ====================================================================== -->

	<nodes>
		<node id="1" x="1060112.0772613622" y="864517.1773782899" />
		<node id="10" x="1058965.8619723031" y="870333.2186650914" />
		<node id="11" x="1059395.8445008306" y="871264.4968623485" />
		<node id="12" x="1059637.7079378618" y="871606.0297009527" />
		<node id="13" x="1060074.8612706137" y="872144.0360946545" />
		<node id="14" x="1060574.4157640082" y="872417.0575918637" />
		<node id="15" x="1061148.2798121395" y="872459.7837564863" />
		<node id="16" x="1061889.1402076434" y="872625.2007690534" />
		<node id="17" x="1062569.2465215945" y="872748.6420608201" />
		<node id="18" x="1063268.9241088515" y="872699.7570709351" />
		<node id="19" x="1063941.6685298118" y="872641.8939644481" />
		<node id="2" x="1059724.356716891" y="864722.0306181491" />
		<node id="20" x="1064317.1122597805" y="872593.9966136401" />
		<node id="21" x="1064633.1167413578" y="872558.4514628391" />
		<node id="22" x="1065631.9392842855" y="872752.852615164" />
		<node id="23" x="1061269.3310651735" y="872555.7120701447" />
		<node id="24" x="1061084.5217371196" y="873165.2828105834" />
		<node id="25" x="1060841.6733061327" y="873757.4121475404" />
		<node id="26" x="1060831.6380642506" y="874027.8111350059" />
		<node id="27" x="1060985.7884568654" y="872566.3868968731" />
		<node id="28" x="1060845.4817837782" y="873096.1763436001" />
		<node id="29" x="1060677.9733739889" y="873645.8745251022" />
		<node id="3" x="1059435.2374578156" y="865215.631729241" />
		<node id="30" x="1061389.7430890333" y="874430.2287691903" />
		<node id="31" x="1061337.0090276701" y="874220.4476021817" />
		<node id="32" x="1061687.7576811987" y="874388.1763988745" />
		<node id="33" x="1062257.3775162743" y="874698.8216583201" />
		<node id="34" x="1062709.6816031174" y="875068.0456220667" />
		<node id="35" x="1062989.1834412762" y="875434.5156934608" />
		<node id="36" x="1063444.8371569507" y="875902.0871924036" />
		<node id="37" x="1063941.8522748004" y="876400.6346099317" />
		<node id="38" x="1064383.4836802285" y="876754.6305924421" />
		<node id="39" x="1060955.8322338369" y="864095.5301849408" />
		<node id="4" x="1059196.6244905011" y="866416.5484640084" />
		<node id="40" x="1058819.3917464018" y="869398.4729738405" />
		<node id="41" x="1060882.469490825" y="872973.7469502729" />
		<node id="42" x="1060708.610603154" y="873545.26732816" />
		<node id="43" x="1061175.0685271774" y="874496.555001949" />
		<node id="44" x="1061360.6972873188" y="874750.4654220134" />
		<node id="45" x="1062009.1979426367" y="875965.8681533599" />
		<node id="46" x="1062292.3467125017" y="876416.1709341262" />
		<node id="47" x="1062696.7109418109" y="877057.6556282331" />
		<node id="48" x="1061657.7192782196" y="872145.1760687708" />
		<node id="49" x="1062216.458819589" y="871884.9434392753" />
		<node id="5" x="1059084.196880899" y="867086.4827212546" />
		<node id="50" x="1062644.568689827" y="871569.998425302" />
		<node id="51" x="1063060.9557932096" y="871299.4515232164" />
		<node id="52" x="1063607.1438644493" y="870742.055096255" />
		<node id="53" x="1064795.20576636" y="870489.0351222935" />
		<node id="54" x="1065213.2434503366" y="870128.0502569643" />
		<node id="55" x="1065616.9192662372" y="869816.6531136637" />
		<node id="56" x="1063216.7470292193" y="877612.140686344" />
		<node id="57" x="1058733.9289019026" y="869405.5394078573" />
		<node id="58" x="1066040.865968252" y="872465.2417649726" />
		<node id="6" x="1059027.0029596917" y="867594.6355595728" />
		<node id="7" x="1058988.4547395052" y="868165.6319725617" />
		<node id="7AGO1" x="1065624.2590297426" y="872753.9284345396" />
		<node id="7AGO2" x="1065609.449887234" y="872742.3078535048" />
		<node id="7AGO3" x="1065582.0370354718" y="872744.686027621" />
		<node id="7AGO4" x="1065662.2241044992" y="872759.1119721766" />
		<node id="8" x="1058917.5700502105" y="868807.4403206531" />
		<node id="9" x="1058818.7130388622" y="869817.6455752499" />
		<node id="A.SANI10" x="1066114.7053903812" y="872540.2545510842" />
		<node id="A.SANI11" x="1066077.5984302" y="872545.2075625927" />
		<node id="A.SANI12" x="1066106.1931906245" y="872577.3557944761" />
		<node id="A.SANI13" x="1066011.9749709405" y="872589.9221146732" />
		<node id="A.SANI14" x="1066009.7136340188" y="872552.5675139775" />
		<node id="A.SANI15" x="1066018.8616834518" y="872536.3538401196" />
		<node id="A.SANI16" x="1066103.2127873611" y="872554.346845306" />
		<node id="A.SANI17" x="1066125.2831022274" y="872555.0054058393" />
		<node id="A.SANIN1" x="1066127.0530518384" y="872587.3214834216" />
		<node id="A.SANIN2" x="1066064.787426359" y="872595.4534851674" />
		<node id="A.SANIN3" x="1066011.010514556" y="872602.1466106497" />
		<node id="A.SANIN4" x="1066127.7413006886" y="872574.3282513345" />
		<node id="A.SANIN5" x="1066069.5797005668" y="872582.2173312015" />
		<node id="A.SANIN6" x="1066031.1767428091" y="872587.6306798307" />
		<node id="A.SANIN7" x="1066081.6638659234" y="872558.6638072309" />
		<node id="A.SANIN8" x="1066028.172739142" y="872552.6100477875" />
		<node id="A15OC9A1" x="1058269.8749352968" y="874379.7768362846" />
		<node id="A15OC9A2" x="1058271.9037475851" y="874394.2765103659" />
		<node id="A15OC9A3" x="1058479.0575246646" y="874334.6162690865" />
		<node id="A15OEC7" x="1058676.4335898953" y="874152.449148955" />
		<node id="A15OEC71" x="1058664.929355504" y="874135.977988228" />
		<node id="A15OEC9A" x="1058516.6622423506" y="874319.3093436989" />
		<node id="A1K2" x="1059484.6379924922" y="873388.4979944887" />
		<node id="A1NC10" x="1060377.239224101" y="873823.4463111475" />
		<node id="A1NC171" x="1060798.855777383" y="874151.1395949678" />
		<node id="A1NC71" x="1060063.516706128" y="873471.0583032176" />
		<node id="A2AN72BN" x="1063683.862633034" y="877908.5306276481" />
		<node id="A2ANC71N" x="1063474.686446066" y="877695.3436637737" />
		<node id="A2BBSN" x="1063791.6537779283" y="878050.7282791036" />
		<node id="A2BNC25" x="1061435.560462953" y="875259.2199862791" />
		<node id="A2BNC34" x="1061294.2499482536" y="875732.1273577423" />
		<node id="A2BNC35" x="1061275.8214067516" y="875734.2054646156" />
		<node id="A2BNC75C" x="1063960.5871592956" y="878250.4674964615" />
		<node id="A2CNC60" x="1063392.7584280358" y="877201.997278692" />
		<node id="A2CNC74" x="1063785.5101808829" y="878303.4699261145" />
		<node id="A2CNC75C" x="1063886.9362769572" y="878356.4899555624" />
		<node id="A2DNC57D" x="1063278.0221238097" y="877106.7942554528" />
		<node id="A2EC55B" x="1063182.5933077773" y="877036.4546422814" />
		<node id="A2FC25" x="1061536.5364294716" y="874928.2970784234" />
		<node id="A2GNC57" x="1063112.5862700774" y="877243.2649370967" />
		<node id="A2GNC58" x="1063202.048104558" y="877327.6395185961" />
		<node id="A2NA1" x="1059829.1286684766" y="873486.4979505833" />
		<node id="A2NC24" x="1061475.9571437002" y="874642.0335081047" />
		<node id="A2NC34" x="1062216.1294996215" y="875471.9415687731" />
		<node id="A2NC38" x="1062394.9864166311" y="875761.8694953811" />
		<node id="A2NC57AN" x="1063537.982068262" y="877007.0278537385" />
		<node id="A2NC62AN" x="1063650.8875065872" y="877166.8597891289" />
		<node id="A2NC75AN" x="1064068.816344597" y="878032.9290534593" />
		<node id="A2NC75C" x="1064198.5129770585" y="878189.5465598712" />
		<node id="A2NC75IN" x="1064215.7160259672" y="878222.6716268542" />
		<node id="A3NC17" x="1060894.002408416" y="874129.0781196278" />
		<node id="A3NC23D" x="1061551.6419003436" y="875067.0884049758" />
		<node id="A3NC24" x="1061528.0664988584" y="875159.0425046615" />
		<node id="A3NC31" x="1061731.0050958046" y="875548.2330129289" />
		<node id="A3NC32A" x="1061737.509519048" y="875511.7442486407" />
		<node id="A3NC45" x="1062277.1933608826" y="876440.2305698127" />
		<node id="A3NC47A" x="1062387.3758354262" y="876616.1246950388" />
		<node id="A3NC52" x="1062729.439091086" y="877085.6966502456" />
		<node id="A3NC59" x="1063009.9026198343" y="877532.0722069971" />
		<node id="A3NC61A" x="1063028.3287216097" y="877584.9491303174" />
		<node id="A40OEC51" x="1058837.1519267422" y="873837.5298814868" />
		<node id="A4NC10" x="1060256.7514745332" y="873842.3597874608" />
		<node id="A4NC18" x="1060918.8608963015" y="874323.7803344446" />
		<node id="A4NC21" x="1061089.3010382352" y="874553.5250538313" />
		<node id="A4NC23" x="1061253.5498073567" y="874813.5542869915" />
		<node id="A4NC3" x="1059291.4152963222" y="873426.6626939063" />
		<node id="A4NC5" x="1059058.8032997872" y="873689.0129500107" />
		<node id="A4NC6" x="1058781.510123085" y="873760.3979150174" />
		<node id="A4OEC5" x="1058831.0291185053" y="873857.185918615" />
		<node id="A5NC23" x="1061080.1119448687" y="874696.970862491" />
		<node id="A6ANC21" x="1060723.866382839" y="874756.9398244678" />
		<node id="A6ANC22" x="1060737.9863713754" y="874839.9165884149" />
		<node id="A6ANC223" x="1060829.2336277298" y="874834.1329922169" />
		<node id="A6ANC25" x="1060739.8241159194" y="875184.7534440183" />
		<node id="A6ANC27" x="1060829.8773810691" y="875425.6931612497" />
		<node id="A6ANC29" x="1061000.8514282464" y="875689.1663294183" />
		<node id="A6ANC35" x="1061090.04586759" y="875815.8366464704" />
		<node id="A6BISC35" x="1061145.6967606633" y="875819.5251233826" />
		<node id="A6NA70N" x="1061551.593409214" y="877970.8303444587" />
		<node id="A6NC13" x="1060459.5035443476" y="874086.4975319857" />
		<node id="A6NC16" x="1060708.96341408" y="874427.7916508771" />
		<node id="A6NC21" x="1060834.336154536" y="874765.696940065" />
		<node id="A6NC23" x="1060825.142812033" y="874968.6123072051" />
		<node id="A6NC252" x="1060920.5628652493" y="875218.0336548688" />
		<node id="A6NC26A" x="1060955.2063390801" y="875307.5955384602" />
		<node id="A6NC28" x="1061079.6790436814" y="875491.4525289173" />
		<node id="A6NC30-2" x="1061189.031379301" y="875666.9750445726" />
		<node id="A6NC34" x="1061232.1685151316" y="875745.2691756114" />
		<node id="A6NC372" x="1061237.4642626198" y="876135.8778309728" />
		<node id="A6NC37B" x="1061237.7019877178" y="876151.1451408237" />
		<node id="A6NC381" x="1061224.2639926986" y="876223.2311153624" />
		<node id="A6NC40-2" x="1061385.933776993" y="876556.1828569848" />
		<node id="A6NC411" x="1061357.0306289564" y="876576.0708824497" />
		<node id="A6NC44BA" x="1061318.9113054015" y="876940.9743688806" />
		<node id="A6NC45" x="1061335.8316750785" y="877037.0383794163" />
		<node id="A6NC471" x="1061307.5165267722" y="877002.1579952359" />
		<node id="A6NC472" x="1061341.2286484982" y="876992.0406608189" />
		<node id="A6NC48" x="1061337.781638971" y="877393.4881594036" />
		<node id="A6NC49" x="1061325.8160869444" y="877480.381034286" />
		<node id="A6NC501" x="1061310.2961211405" y="877417.9540551117" />
		<node id="A6NC502" x="1061347.7009813867" y="877322.5048497427" />
		<node id="A6NC52" x="1061394.980639415" y="877545.9117124729" />
		<node id="A6NC528" x="1061516.0130819015" y="877694.9029947671" />
		<node id="A6NC652" x="1061576.2304757498" y="877960.1548313403" />
		<node id="A6NC67" x="1061332.0529444" y="877477.1291323452" />
		<node id="A9AOE22A" x="1057006.3599440253" y="873905.9715636773" />
		<node id="A9AOE23B" x="1057031.0942903257" y="873888.5372501132" />
		<node id="A9AOE24" x="1056940.2634475746" y="873923.3524494399" />
		<node id="A9AOE241" x="1056904.1214349284" y="873915.8684877877" />
		<node id="A9OE" x="1057363.1104218687" y="874330.2206163986" />
		<node id="A9OE1" x="1057207.7724413874" y="874128.2301051178" />
		<node id="A9OE2" x="1057166.483899373" y="874105.3843743776" />
		<node id="A9OE3" x="1057421.8514035307" y="874386.1281421257" />
		<node id="ALAMOS1" x="1062696.8456213907" y="877081.315579095" />
		<node id="ALAMOS2" x="1062712.0172474978" y="877106.5743344451" />
		<node id="ALUISA" x="1057823.2346665137" y="865649.5012071864" />
		<node id="AMANECE1" x="1065201.996874177" y="870129.6570264304" />
		<node id="AMANECE2" x="1065213.6439814512" y="870113.8130580683" />
		<node id="ATGI1" x="1063249.535990205" y="872707.5035185949" />
		<node id="ATGI2" x="1063283.810101978" y="872691.3047831146" />
		<node id="AUT-JAM1" x="1061654.0216761893" y="858649.7726438479" />
		<node id="AV-MELE1" x="1057898.2665368053" y="861997.7905086572" />
		<node id="AV-MELE2" x="1057838.485351674" y="862025.4042371281" />
		<node id="AV-MELEN" x="1058716.342643605" y="861606.859512109" />
		<node id="AV2OC201" x="1057323.1830157794" y="873003.8796539315" />
		<node id="AV2OE" x="1057649.4260710925" y="872943.7605156677" />
		<node id="AV2OEATE" x="1057104.095429384" y="873038.6868892843" />
		<node id="AV2OEBEL" x="1057610.5035717275" y="872940.021381864" />
		<node id="AV2OEC20" x="1057348.7395133723" y="873007.5804276513" />
		<node id="BELAL1" x="1061871.2616638897" y="872626.1429151817" />
		<node id="BELAL2" x="1061905.342783" y="872622.1078502699" />
		<node id="BUITRE1" x="1059747.1143325996" y="864702.5514454051" />
		<node id="BUITRE2" x="1059693.7524938597" y="864734.9591374467" />
		<node id="C.PALOS1" x="1061648.4937632799" y="872139.7817355025" />
		<node id="C.PALOS2" x="1061657.756641921" y="872135.0265307236" />
		<node id="C102K27C" x="1066514.4497550633" y="869595.7659525943" />
		<node id="C10K10" x="1060560.3629483504" y="872883.1935895057" />
		<node id="C10K13" x="1060608.234126109" y="872571.0065885952" />
		<node id="C10K19" x="1060678.0169832192" y="872052.5642755653" />
		<node id="C10K22" x="1060712.4502576364" y="871757.3883123692" />
		<node id="C10K31" x="1060632.845160423" y="870890.3687593298" />
		<node id="C10K32" x="1060545.9955297252" y="870864.515470021" />
		<node id="C10K32A" x="1060437.9522054396" y="870655.0828971023" />
		<node id="C10K33" x="1060483.9069476076" y="870615.4838264466" />
		<node id="C10K332" x="1060324.8039594302" y="870301.9810710226" />
		<node id="C10K35" x="1060417.8936163522" y="870427.6380081312" />
		<node id="C10K38A" x="1060316.5752554347" y="870116.104632517" />
		<node id="C10K39" x="1060222.9331782078" y="869982.0609030114" />
		<node id="C10K42" x="1060132.892164834" y="869705.5515889834" />
		<node id="C10K42A" x="1060182.8322589712" y="869714.7649616174" />
		<node id="C10K44" x="1060102.281174868" y="869467.6574698506" />
		<node id="C10K44A" x="1060019.3530330977" y="869382.9524274325" />
		<node id="C10K48B" x="1059977.2978489231" y="869075.6919306127" />
		<node id="C10K49" x="1059914.337736663" y="869054.460918532" />
		<node id="C10K50" x="1059808.579308683" y="868725.9692176457" />
		<node id="C10K53" x="1059852.1204880087" y="868698.7172624005" />
		<node id="C10K57" x="1059753.202996452" y="868391.0557022216" />
		<node id="C10K61" x="1059680.3248206151" y="868328.996451054" />
		<node id="C10K63" x="1059542.3390329143" y="867887.5995447952" />
		<node id="C10K64A" x="1059589.198557585" y="867888.5479994799" />
		<node id="C10K66A" x="1059456.7528768596" y="867474.4010571141" />
		<node id="C10K70" x="1059372.8668375628" y="867221.7947028185" />
		<node id="C10K73" x="1059266.731813986" y="866897.3590706498" />
		<node id="C10OEK25" x="1058675.1258216589" y="871516.8838676633" />
		<node id="C10OEK37" x="1058486.6914472505" y="871152.9610864721" />
		<node id="C11226H3" x="1067446.7502109304" y="870246.4686733091" />
		<node id="C11226J5" x="1067313.1997566472" y="870019.7772329674" />
		<node id="C112K26E" x="1067556.4552152087" y="870445.2833915199" />
		<node id="C112K26L" x="1067205.0555965884" y="869839.5177996401" />
		<node id="C112K26Q" x="1067096.8565759824" y="869648.7209159964" />
		<node id="C112K27" x="1066965.0712567167" y="869411.7414336071" />
		<node id="C112K27G" x="1066868.0642739204" y="869240.3363514459" />
		<node id="C11OEK15" x="1057620.249905141" y="874585.5319274273" />
		<node id="C11OEK24" x="1058762.7909186804" y="872403.6553404971" />
		<node id="C11OK15A" x="1057623.173255335" y="874545.6628492319" />
		<node id="C121122A" x="1066987.499523137" y="868502.9968019816" />
		<node id="C121C121" x="1067107.9408976343" y="868717.2382865421" />
		<node id="C121C122" x="1066965.8373428115" y="868489.8977171847" />
		<node id="C121K25" x="1068035.2341332424" y="870589.4726586157" />
		<node id="C121K25B" x="1068048.048355749" y="870535.8473172842" />
		<node id="C121K263" x="1067783.4249023541" y="869882.4906735617" />
		<node id="C121K26E" x="1067961.3879842318" y="870215.6490471447" />
		<node id="C121K26F" x="1067880.138162082" y="870122.3376282876" />
		<node id="C121K26I" x="1067767.1249019327" y="869883.5861063089" />
		<node id="C121K26J" x="1067670.194016197" y="869693.1351409082" />
		<node id="C121K26K" x="1067672.2150329591" y="869718.2015357071" />
		<node id="C121K26P" x="1067482.224304575" y="869362.920539092" />
		<node id="C121K26Q" x="1067476.3363569817" y="869351.1517076327" />
		<node id="C121K26R" x="1067473.6973899163" y="869375.0794243563" />
		<node id="C121K27F" x="1067350.6832721499" y="869130.240184901" />
		<node id="C121K27J" x="1067266.480242359" y="869019.6023499934" />
		<node id="C121K28D" x="1067094.4216723712" y="868714.096903197" />
		<node id="C122K25" x="1068022.2225630737" y="870950.1550673171" />
		<node id="C12328D3" x="1067500.1054015409" y="868523.6869029762" />
		<node id="C12328D7" x="1067385.6391450416" y="868331.7812066546" />
		<node id="C123AK28" x="1067432.0817495366" y="867918.9919215766" />
		<node id="C123K23" x="1068248.976454977" y="870580.5787484478" />
		<node id="C123K26" x="1068082.297862834" y="869982.7003730723" />
		<node id="C123K262" x="1067903.7849958416" y="869638.360248658" />
		<node id="C123K26A" x="1068183.6541049145" y="870202.336948861" />
		<node id="C123K26B" x="1068226.020811574" y="870276.6406468851" />
		<node id="C123K26H" x="1068002.5500186419" y="869857.0128624326" />
		<node id="C123K26J" x="1067870.2217489707" y="869603.5355874216" />
		<node id="C123K26M" x="1067769.0932911797" y="869411.3910338434" />
		<node id="C123K26R" x="1067711.5526200044" y="869315.5150848186" />
		<node id="C123K26S" x="1067642.7402022593" y="869177.3323012752" />
		<node id="C123K27B" x="1067582.61447852" y="869067.324327324" />
		<node id="C123K27C" x="1067559.6489354162" y="869064.697723436" />
		<node id="C123K281" x="1067352.5649281347" y="868304.6670824296" />
		<node id="C123K28A" x="1067534.0027647014" y="868812.0885951752" />
		<node id="C123K28B" x="1067526.113074693" y="868791.9627267353" />
		<node id="C123K28D" x="1067486.7648092886" y="868531.4812914545" />
		<node id="C13C14" x="1061158.0699741868" y="871002.4523248854" />
		<node id="C13C141" x="1061111.9337913054" y="870980.7999412862" />
		<node id="C13D231" x="1061056.1947856287" y="871392.4456186265" />
		<node id="C13D232" x="1061085.776542906" y="871375.2614680011" />
		<node id="C13K100" x="1060061.2789300617" y="864817.1491457658" />
		<node id="C13K100U" x="1060054.6254082308" y="865011.9564704972" />
		<node id="C13K101A" x="1060045.5082344261" y="864257.5586015641" />
		<node id="C13K20" x="1061024.2236494243" y="871965.2494718764" />
		<node id="C13K21" x="1061051.3402753826" y="871992.5737576251" />
		<node id="C13K22B" x="1061062.5341540803" y="871746.5618715273" />
		<node id="C13K231" x="1061036.519446754" y="871679.5520375445" />
		<node id="C13K29B" x="1061019.382534316" y="870779.4237892451" />
		<node id="C13K32" x="1060931.809913662" y="870509.54974657" />
		<node id="C13K32A" x="1061000.6547890354" y="870657.1873238275" />
		<node id="C13K341" x="1060854.9852448804" y="870281.7955136992" />
		<node id="C13K342" x="1060904.116112076" y="870356.5903076242" />
		<node id="C13K37" x="1060775.1205154462" y="870025.5345756434" />
		<node id="C13K39" x="1060761.5631837638" y="869928.1824611018" />
		<node id="C13K41A1" x="1060639.515330422" y="869591.2015739896" />
		<node id="C13K41A2" x="1060649.7033880134" y="869589.5486468519" />
		<node id="C13K44" x="1060539.1180998574" y="869286.6718265573" />
		<node id="C13K44A" x="1060539.8227142608" y="869241.732267945" />
		<node id="C13K47" x="1060464.2336193656" y="869063.2508576511" />
		<node id="C13K47A" x="1060473.4969015007" y="869058.0952062524" />
		<node id="C13K49A" x="1060372.1096513097" y="868809.9317562759" />
		<node id="C13K50" x="1060384.3283507107" y="868764.784217774" />
		<node id="C13K551" x="1060281.5472983061" y="868523.8688876645" />
		<node id="C13K552" x="1060296.9476360828" y="868476.6961534081" />
		<node id="C13K56" x="1060203.3377461836" y="868282.569533254" />
		<node id="C13K57" x="1060202.6539994474" y="868182.8595428972" />
		<node id="C13K59" x="1060088.919011118" y="867929.8361622515" />
		<node id="C13K65" x="1060091.5237665172" y="867855.1629875231" />
		<node id="C13K65AB" x="1059989.4139407158" y="867624.8468966923" />
		<node id="C13K671" x="1059948.2940643844" y="867297.6821842545" />
		<node id="C13K68" x="1059986.0051374645" y="867428.0068742167" />
		<node id="C13K69" x="1059962.0408080837" y="867171.194894208" />
		<node id="C13K701" x="1059919.597177603" y="866946.5644557626" />
		<node id="C13K75" x="1059891.8199397817" y="866607.6114511718" />
		<node id="C13K7572" x="1059933.3290855847" y="866846.4324498442" />
		<node id="C13K78" x="1059913.3343287243" y="866555.096494828" />
		<node id="C13K801" x="1059879.2235210463" y="866279.4787099807" />
		<node id="C13K802" x="1059910.7381010777" y="866285.5485621523" />
		<node id="C13K83" x="1059949.5444552395" y="865893.7984463829" />
		<node id="C13K831" x="1059945.4384448896" y="865783.9804314248" />
		<node id="C13K86" x="1060008.7260585611" y="865555.2933561422" />
		<node id="C13K87" x="1060006.4413639149" y="865336.4291909202" />
		<node id="C13K89" x="1060028.6402113105" y="864942.6118302487" />
		<node id="C13OC55A" x="1057040.3798199373" y="868756.57898799" />
		<node id="C13OECJR" x="1056343.0415714192" y="868656.4371838835" />
		<node id="C13OEK55" x="1056986.124135193" y="868792.9194462488" />
		<node id="C13OEPPC" x="1056371.1370683475" y="868645.9157624805" />
		<node id="C13OK15" x="1058201.369565408" y="872560.3713924631" />
		<node id="C14K31" x="1061089.7941046418" y="870618.9337509191" />
		<node id="C14K32" x="1061115.3844278255" y="870618.97949096" />
		<node id="C14K33A" x="1061111.2421748238" y="870254.1434924139" />
		<node id="C14K34" x="1061132.9634975041" y="870272.8015027024" />
		<node id="C14K37" x="1061133.0003457349" y="869887.23463856" />
		<node id="C14K38A" x="1061154.3791089437" y="869856.4373133676" />
		<node id="C14K40" x="1061111.0006820804" y="869657.1774408487" />
		<node id="C14K40A" x="1061120.0365417532" y="869618.5403700134" />
		<node id="C14K42BS" x="1061042.1820451668" y="869408.5396532258" />
		<node id="C14K43" x="1061064.655262096" y="869407.0785010834" />
		<node id="C14K442" x="1060960.0234614937" y="869114.7707607084" />
		<node id="C14K46" x="1060967.9209475915" y="869069.0368923178" />
		<node id="C14K47" x="1060884.025236682" y="868842.4465597862" />
		<node id="C14K49" x="1060883.9147762847" y="868765.5910470239" />
		<node id="C14K50" x="1060782.7250012213" y="868497.4912570033" />
		<node id="C14K53" x="1060800.2475626126" y="868463.0058941008" />
		<node id="C14K54" x="1060721.4661154773" y="868252.0231845253" />
		<node id="C14K56" x="1060738.518335205" y="868229.7006036077" />
		<node id="C14K58" x="1060635.0572243135" y="867936.0130570035" />
		<node id="C14K64B" x="1060668.974984989" y="867949.9780241679" />
		<node id="C14K65" x="1060581.6139322591" y="867679.5819882932" />
		<node id="C14K66" x="1060611.1184664436" y="867635.4892821326" />
		<node id="C14K66A" x="1060588.3197772794" y="867448.2521564909" />
		<node id="C14K6867" x="1060601.1398097393" y="867377.7316160331" />
		<node id="C14K69A" x="1060573.3488079233" y="867067.3759810105" />
		<node id="C14K70" x="1060596.5827213752" y="867085.3290875613" />
		<node id="C14K72" x="1060568.5758956647" y="866665.1265608745" />
		<node id="C14K76" x="1060588.7880908868" y="866622.5634457852" />
		<node id="C14K832" x="1060483.9864639398" y="865964.6265934174" />
		<node id="C14K84" x="1060506.0895358385" y="865964.5163274029" />
		<node id="C14K85A1" x="1060491.5163040361" y="865695.6978968385" />
		<node id="C14K85B" x="1060511.6695222796" y="865704.6178573355" />
		<node id="C14OEK12" x="1057520.6462037726" y="874519.3120550116" />
		<node id="C14OK121" x="1057521.5750431393" y="874458.8911497913" />
		<node id="C14OK15" x="1058192.4952426867" y="872532.0760330354" />
		<node id="C14OK23C" x="1058401.5812857137" y="872334.6783566818" />
		<node id="C14OK24B" x="1058315.7061815416" y="872390.9363292895" />
		<node id="C14OK24C" x="1058372.7560178998" y="872379.8477104794" />
		<node id="C15K16" x="1061283.9483644061" y="872336.8689327762" />
		<node id="C15K18A" x="1061284.8752838117" y="872176.1551281736" />
		<node id="C15K19A" x="1061306.4934343137" y="872105.8233137925" />
		<node id="C15K23" x="1061273.5407775214" y="871655.4229580035" />
		<node id="C15K29A" x="1061293.328208689" y="870643.2880308675" />
		<node id="C15K33" x="1061302.1012850509" y="870365.7595283746" />
		<node id="C16K100" x="1060785.9356134033" y="863984.0351716367" />
		<node id="C16K1001" x="1060920.5535308723" y="864435.1683284774" />
		<node id="C16K103" x="1060702.0509422335" y="863835.560807724" />
		<node id="C16K46A" x="1061345.6887117948" y="868922.5476692624" />
		<node id="C16K49A" x="1061238.8597517493" y="868586.1277396462" />
		<node id="C16K53" x="1061131.0974541921" y="868205.4133261257" />
		<node id="C16K56" x="1061153.538186759" y="868206.7775390926" />
		<node id="C16K561" x="1061098.3911689676" y="867747.5173539178" />
		<node id="C16K65" x="1061122.7785141338" y="867693.4991762218" />
		<node id="C16K68" x="1061097.9370265491" y="867354.8852327254" />
		<node id="C16K682" x="1061075.1009713735" y="867288.5829546233" />
		<node id="C16K69" x="1061089.002987406" y="867161.1125958692" />
		<node id="C16K692" x="1061059.5848844582" y="867051.526445264" />
		<node id="C16K73" x="1061030.303337356" y="866595.5380032171" />
		<node id="C16K75A" x="1061054.643565064" y="866569.7793359286" />
		<node id="C16K83" x="1061004.581498712" y="866120.7215427356" />
		<node id="C16K83C" x="1061017.1234848658" y="865996.4750263807" />
		<node id="C16K85" x="1060979.1123389818" y="865743.8323817911" />
		<node id="C16K85B" x="1060997.0866084332" y="865675.895781742" />
		<node id="C16K90UR" x="1060975.5509591463" y="865275.8781946704" />
		<node id="C16K93" x="1060962.7865333122" y="865083.6096752018" />
		<node id="C16K98" x="1060932.0118854628" y="864644.1772621188" />
		<node id="C17K29B" x="1061465.723076554" y="870867.0122340898" />
		<node id="C17K32" x="1061479.4195045629" y="870616.4567381841" />
		<node id="C17K33A" x="1061490.4948280656" y="870363.2578827001" />
		<node id="C17K37A" x="1061507.5954518905" y="869991.3378595462" />
		<node id="C18A6N" x="1060761.5348620939" y="874473.3460285118" />
		<node id="C18CARU1" x="1060769.782809352" y="861526.7127257711" />
		<node id="C18ICESI" x="1060746.694019455" y="861191.6945875357" />
		<node id="C18K105" x="1060643.883707001" y="863684.8893517957" />
		<node id="C18K106" x="1060749.9060369453" y="863388.4631875148" />
		<node id="C18K108" x="1060758.0320679746" y="863430.1200517118" />
		<node id="C18K111" x="1060811.4730056191" y="863095.3903163758" />
		<node id="C18K1121" x="1060824.149317219" y="862840.3493448675" />
		<node id="C18K114" x="1060797.1043002459" y="863119.2195498499" />
		<node id="C18K1142" x="1060809.5048266589" y="862862.457750997" />
		<node id="C18K114A" x="1060841.4104433379" y="862558.7101560028" />
		<node id="C18K114B" x="1060820.7107561352" y="862478.9856832728" />
		<node id="C18K118" x="1060778.8537883605" y="861976.4232858673" />
		<node id="C18K122" x="1060757.5367582755" y="861508.7360901004" />
		<node id="C18K125" x="1060738.2654069646" y="861247.2888938386" />
		<node id="C18K125A" x="1060675.5700168815" y="860853.3011944501" />
		<node id="C18K126" x="1060584.1105567613" y="860443.1701539364" />
		<node id="C18K127" x="1060540.4197689728" y="860068.453602646" />
		<node id="C18K1271" x="1060551.804920421" y="860080.1021298545" />
		<node id="C18K1272" x="1060693.1708794707" y="860845.2008568221" />
		<node id="C18K127C" x="1060570.4833181251" y="860300.6949583946" />
		<node id="C18K1291" x="1060543.1091601786" y="859894.8395548991" />
		<node id="C18K1301" x="1060466.153220812" y="859603.6247777706" />
		<node id="C18K1302" x="1060483.505716561" y="859600.7780442856" />
		<node id="C18K137" x="1060364.9855710971" y="859327.8175487436" />
		<node id="C18K141" x="1060204.5509374226" y="858867.4577824817" />
		<node id="C18K1412" x="1060387.562067968" y="859310.1068916087" />
		<node id="C18K1413" x="1060289.158963846" y="859112.7843834299" />
		<node id="C18K1414" x="1060313.6128702187" y="859106.6848625937" />
		<node id="C18K142" x="1060229.3761090874" y="858861.3285821571" />
		<node id="C18K146" x="1060017.6058850968" y="858333.8536603295" />
		<node id="C18K150" x="1060044.421352523" y="858356.6296863335" />
		<node id="C18K1682" x="1059808.9214149097" y="857693.2172250112" />
		<node id="C18K170" x="1059743.0851365577" y="857497.8796121455" />
		<node id="C18K1701" x="1059725.9461333007" y="857506.1341363381" />
		<node id="C18NA3N" x="1060881.8493416049" y="874273.6280104149" />
		<node id="C18UJAV1" x="1060792.370506784" y="861985.6767370637" />
		<node id="C18UJAV2" x="1060806.2846558024" y="861999.6611641906" />
		<node id="C1AK73B1" x="1057832.1530085786" y="866682.0422068007" />
		<node id="C1AOEK72" x="1057834.0861157314" y="866876.1161368323" />
		<node id="C1AOEK75" x="1057814.6341400747" y="866540.6713765564" />
		<node id="C1CK70" x="1058209.147892272" y="866937.7851142513" />