<?xml version="1.0" encoding="UTF-8"?>
<!DOCTYPE network SYSTEM "http://www.matsim.org/files/dtd/network_v1.dtd">
<network>

<!-- ====================================================================== -->

	<nodes>
		<node id="1" x="1060098.5671258294" y="864518.5795635029" />
		<node id="10" x="1058952.3759578962" y="870334.6207219303" />
		<node id="11" x="1059382.361896706" y="871265.8964664931" />
		<node id="12" x="1059624.2265228287" y="871607.4280659454" />
		<node id="13" x="1060061.381689246" y="872145.4322787281" />
		<node id="14" x="1060560.9369008886" y="872418.4515450005" />
		<node id="15" x="1061134.8006774613" y="872461.1753540678" />
		<node id="16" x="1061875.661165635" y="872626.5892340585" />
		<node id="17" x="1062555.7674466383" y="872750.0276671208" />
		<node id="18" x="1063255.444281434" y="872701.1398718926" />
		<node id="19" x="1063928.1879298943" y="872643.2740738558" />
		<node id="2" x="1059710.8477143445" y="864723.4341702611" />
		<node id="20" x="1064303.6311630784" y="872595.3752324264" />
		<node id="21" x="1064619.6352447474" y="872559.8288225287" />
		<node id="22" x="1065618.457769656" y="872754.2257384673" />
		<node id="23" x="1061255.8522249258" y="872557.1031022675" />
		<node id="24" x="1061071.0455105659" y="873166.6741156685" />
		<node id="25" x="1060828.1996682403" y="873758.8039793754" />
		<node id="26" x="1060818.165531848" y="874029.2027994569" />
		<node id="27" x="1060972.3098798841" y="872567.7790689227" />
		<node id="28" x="1060832.00546115" y="873097.5686714022" />
		<node id="29" x="1060664.499408531" y="873647.2671071012" />
		<node id="3" x="1059421.7306505684" y="865217.0360195239" />
		<node id="30" x="1061376.2717668386" y="874431.6178550922" />
		<node id="31" x="1061323.5368923545" y="874221.8370644031" />
		<node id="32" x="1061674.2859597227" y="874389.5643042494" />
		<node id="33" x="1062243.9066229658" y="874700.2070017259" />
		<node id="34" x="1062696.2118685292" y="875069.4288321227" />
		<node id="35" x="1062975.7149894692" y="875435.8974757423" />
		<node id="36" x="1063431.3702685367" y="875903.4667449315" />
		<node id="37" x="1063928.387048504" y="876402.0117348012" />
		<node id="38" x="1064370.0195678878" y="876756.00562573" />
		<node id="39" x="1060942.3197208308" y="864096.9293772681" />
		<node id="4" x="1059183.1226477493" y="866417.9527188578" />
		<node id="40" x="1058805.9020999435" y="869399.8763495979" />
		<node id="41" x="1060868.9926436064" y="872975.139223284" />
		<node id="42" x="1060695.1362062115" y="873546.6598634289" />
		<node id="43" x="1061161.5976385763" y="874497.9449102837" />
		<node id="44" x="1061347.2272908892" y="874751.8543798035" />
		<node id="45" x="1061995.7324130437" y="875967.2535339025" />
		<node id="46" x="1062278.8828110448" y="876417.554812086" />
		<node id="47" x="1062683.2493644035" y="877059.0373591081" />
		<node id="48" x="1061644.2384718417" y="872146.5658511211" />
		<node id="49" x="1062202.976518816" y="871886.3311649999" />
		<node id="5" x="1059070.6977947596" y="867087.8868810195" />
		<node id="50" x="1062631.0847726385" y="871571.3846687302" />
		<node id="51" x="1063047.4704461012" y="871300.8362977223" />
		<node id="52" x="1063593.655816798" y="870743.4381119147" />
		<node id="53" x="1064781.715718645" y="870490.413528967" />
		<node id="54" x="1065199.7515905763" y="870129.4272689396" />
		<node id="55" x="1065603.4258050097" y="869818.0287497345" />
		<node id="56" x="1063203.287337012" y="877613.5198577307" />
		<node id="57" x="1058720.4393502802" y="869406.9431200767" />
		<node id="58" x="1066027.3829430738" y="872466.6134547547" />
		<node id="6" x="1059013.505944085" y="867596.0395384725" />
		<node id="7" x="1058974.9600324766" y="868167.0356485969" />
		<node id="7AGO1" x="1065610.7775257796" y="872755.3015883433" />
		<node id="7AGO2" x="1065595.9683478714" y="872743.6810773945" />
		<node id="7AGO3" x="1065568.5555281993" y="872746.0593615698" />
		<node id="7AGO4" x="1065648.742590725" y="872760.4849665561" />
		<node id="8" x="1058904.0779629042" y="868808.8437699511" />
		<node id="9" x="1058805.2250714046" y="869819.0486249154" />
		<node id="A.SANI10" x="1066101.222611113" y="872541.6258767922" />
		<node id="A.SANI11" x="1066064.1157016975" y="872546.5790358968" />
		<node id="A.SANI12" x="1066092.7105700509" y="872578.7271242109" />
		<node id="A.SANI13" x="1065998.492479163" y="872591.2938191949" />
		<node id="A.SANI14" x="1065996.2309913926" y="872553.9392586909" />
		<node id="A.SANI15" x="1066005.378967033" y="872537.7255608754" />
		<node id="A.SANI16" x="1066089.730075162" y="872555.7182063102" />
		<node id="A.SANI17" x="1066111.8003745694" y="872556.3766760611" />
		<node id="A.SANIN1" x="1066113.5704548645" y="872588.6927195984" />
		<node id="A.SANIN2" x="1066051.3049138146" y="872596.8249691913" />
		<node id="A.SANIN3" x="1065997.5280735483" y="872603.5183089889" />
		<node id="A.SANIN4" x="1066114.258650018" y="872575.6994954748" />
		<node id="A.SANIN5" x="1066056.0971299687" y="872583.5888066033" />
		<node id="A.SANIN6" x="1066017.6942258938" y="872589.0023077509" />
		<node id="A.SANIN7" x="1066068.181189092" y="872560.0352527555" />
		<node id="A.SANIN8" x="1066014.690081524" y="872553.9817170087" />
		<node id="A15OC9A1" x="1058256.4057470385" y="874381.1786174004" />
		<node id="A15OC9A2" x="1058258.434616481" y="874395.6782725198" />
		<node id="A15OC9A3" x="1058465.5879996717" y="874336.0172375849" />
		<node id="A15OEC7" x="1058662.9631819967" y="874153.8494548001" />
		<node id="A15OEC71" x="1058651.4588894956" y="874137.3783529244" />
		<node id="A15OEC9A" x="1058503.1926276833" y="874320.7101714503" />
		<node id="A1K2" x="1059471.1638900414" y="873389.8956072205" />
		<node id="A1NC10" x="1060363.7662078538" y="873824.8399765657" />
		<node id="A1NC171" x="1060785.3837708626" y="874152.531297858" />
		<node id="A1NC71" x="1060050.0424998184" y="873472.4535099929" />
		<node id="A2AN72BN" x="1063670.403807291" y="877909.9076497544" />
		<node id="A2ANC71N" x="1063461.2269009696" y="877696.721710275" />
		<node id="A2BBSN" x="1063778.1954564538" y="878052.1047482712" />
		<node id="A2BNC25" x="1061422.0924827622" y="875260.6082491959" />
		<node id="A2BNC34" x="1061280.7840038785" y="875733.5158366865" />
		<node id="A2BNC35" x="1061262.3554847315" y="875735.5940171826" />
		<node id="A2BNC75C" x="1063947.129533408" y="878251.8431162836" />
		<node id="A2CNC60" x="1063379.2969157405" y="877203.3760401619" />
		<node id="A2CNC74" x="1063772.0529061542" y="878304.8462275875" />
		<node id="A2CNC75C" x="1063873.4791442272" y="878357.8657982151" />
		<node id="A2DNC57D" x="1063264.560307511" y="877108.1735615523" />
		<node id="A2EC55B" x="1063169.1312750583" y="877037.8343943992" />
		<node id="A2FC25" x="1061523.0670236151" y="874929.6851833405" />
		<node id="A2GNC57" x="1063099.1251401724" y="877244.6448184405" />
		<node id="A2GNC58" x="1063188.5872536032" y="877329.01896774" />
		<node id="A2NA1" x="1059815.654702325" y="873487.8940946282" />
		<node id="A2NC24" x="1061462.4866178846" y="874643.4220799215" />
		<node id="A2NC34" x="1062202.6617939153" y="875473.3264825862" />
		<node id="A2NC38" x="1062381.5197595493" y="875763.2534548859" />
		<node id="A2NC57AN" x="1063524.519643813" y="877008.4061682197" />
		<node id="A2NC62AN" x="1063637.4256530525" y="877168.237516274" />
		<node id="A2NC75AN" x="1064055.3577392667" y="878034.3043935519" />
		<node id="A2NC75C" x="1064185.0549191483" y="878190.9212447501" />
		<node id="A2NC75IN" x="1064202.258091664" y="878224.046215323" />
		<node id="A3NC17" x="1060880.5302398556" y="874130.469452938" />
		<node id="A3NC23D" x="1061538.1730486949" y="875068.4763417821" />
		<node id="A3NC24" x="1061514.5980400178" y="875160.4304670792" />
		<node id="A3NC31" x="1061717.5380708124" y="875549.6198494055" />
		<node id="A3NC32A" x="1061724.0423401624" y="875513.1310864879" />
		<node id="A3NC45" x="1062263.7295694158" y="876441.6144914586" />
		<node id="A3NC47A" x="1062373.9126811572" y="876617.5080311344" />
		<node id="A3NC52" x="1062715.9776040395" y="877087.0782254171" />
		<node id="A3NC59" x="1062996.4427546267" y="877533.4522899794" />
		<node id="A3NC61A" x="1063014.8690598926" y="877586.3290972862" />
		<node id="A40OEC51" x="1058823.6801256698" y="873838.929773282" />
		<node id="A4NC10" x="1060243.2786263865" y="873843.7539270258" />
		<node id="A4NC18" x="1060905.3895000443" y="874325.1714172587" />
		<node id="A4NC21" x="1061075.8304466533" y="874554.9152673596" />
		<node id="A4NC23" x="1061240.0801493025" y="874814.9436326843" />
		<node id="A4NC3" x="1059277.9414937645" y="873428.0610590558" />
		<node id="A4NC5" x="1059045.3307326536" y="873690.4120572772" />
		<node id="A4NC6" x="1058768.038051581" y="873761.7980897515" />
		<node id="A4OEC5" x="1058817.5574014834" y="873858.5858204027" />
		<node id="A5NC23" x="1061066.641943926" y="874698.3610034882" />
		<node id="A6ANC21" x="1060710.3968955695" y="874758.3313689712" />
		<node id="A6ANC22" x="1060724.5172109744" y="874841.3080122877" />
		<node id="A6ANC223" x="1060815.7643748967" y="874835.524049266" />
		<node id="A6ANC25" x="1060726.3563575428" y="875186.144598334" />
		<node id="A6ANC27" x="1060816.4105363404" y="875427.0837661321" />
		<node id="A6ANC29" x="1060987.3855291507" y="875690.556037833" />
		<node id="A6ANC35" x="1061076.5804182647" y="875817.2258951627" />
		<node id="A6BISC35" x="1061132.231284617" y="875820.9141422166" />
		<node id="A6NA70N" x="1061538.1364345166" y="877972.2160868275" />
		<node id="A6NC13" x="1060446.031532999" y="874087.8906623203" />
		<node id="A6NC16" x="1060695.4925998738" y="874429.1835071389" />
		<node id="A6NC21" x="1060820.866619413" y="874767.08802854" />
		<node id="A6NC23" x="1060811.674109543" y="874970.0032784678" />
		<node id="A6NC252" x="1060907.0951063605" y="875219.4240479142" />
		<node id="A6NC26A" x="1060941.7389189424" y="875308.9857223241" />
		<node id="A6NC28" x="1061066.2122791524" y="875492.8420658422" />
		<node id="A6NC30-2" x="1061175.5652482877" y="875668.3640022834" />
		<node id="A6NC34" x="1061218.7026711015" y="875746.6578979057" />
		<node id="A6NC372" x="1061224.0000092098" y="876137.2662358143" />
		<node id="A6NC37B" x="1061224.237796482" y="876152.5335331552" />
		<node id="A6NC381" x="1061210.8001059697" y="876224.6195081281" />
		<node id="A6NC40-2" x="1061372.4711301604" y="876557.5703377955" />
		<node id="A6NC411" x="1061343.5680850437" y="876577.4584664596" />
		<node id="A6NC44BA" x="1061305.4502826426" y="876942.3618344477" />
		<node id="A6NC45" x="1061322.371032917" y="877038.425703683" />
		<node id="A6NC471" x="1061294.0557628828" y="877003.5454615471" />
		<node id="A6NC472" x="1061327.7678181392" y="876993.4279967399" />
		<node id="A6NC48" x="1061324.3224550448" y="877394.8752089448" />
		<node id="A6NC49" x="1061312.3572678787" y="877481.7680679809" />
		<node id="A6NC501" x="1061296.8370577854" y="877419.3411989821" />
		<node id="A6NC502" x="1061334.2414993322" y="877323.8919116941" />
		<node id="A6NC52" x="1061381.5220377408" y="877547.2984138369" />
		<node id="A6NC528" x="1061502.5550015348" y="877696.2890887518" />
		<node id="A6NC652" x="1061562.7734390604" y="877961.5404805536" />
		<node id="A6NC67" x="1061318.5941073962" y="877478.5161429121" />
		<node id="A9AOE22A" x="1056992.8897667332" y="873907.3787956804" />
		<node id="A9AOE23B" x="1057017.6240247716" y="873889.9443952258" />
		<node id="A9AOE24" x="1056926.7933883718" y="873924.7599350705" />
		<node id="A9AOE241" x="1056890.6513718194" y="873917.2761245456" />
		<node id="A9OE" x="1057349.6416964403" y="874331.6260981049" />
		<node id="A9OE1" x="1057194.3030137927" y="874129.6363619106" />
		<node id="A9OE2" x="1057153.014409652" y="874106.7908144774" />
		<node id="A9OE3" x="1057408.382861113" y="874387.5333456391" />
		<node id="ALAMOS1" x="1062683.3841409883" y="877082.6972913838" />
		<node id="ALAMOS2" x="1062698.5558593106" y="877107.9559652132" />
		<node id="ALUISA" x="1057809.7308820267" y="865650.9115330287" />
		<node id="AMANECE1" x="1065188.5050303058" y="870131.0340827034" />
		<node id="AMANECE2" x="1065200.152063572" y="870115.1900803805" />
		<node id="ATGI1" x="1063236.0562097072" y="872708.8863922076" />
		<node id="ATGI2" x="1063270.330228344" y="872692.6875302976" />
		<node id="AUT-JAM1" x="1061640.4870673965" y="858651.1738310944" />
		<node id="AV-MELE1" x="1057884.748293847" y="861999.2035361154" />
		<node id="AV-MELE2" x="1057824.9672666157" y="862026.817476206" />
		<node id="AV-MELEN" x="1058702.8221834109" y="861608.2696556072" />
		<node id="AV2OC201" x="1057309.7089734506" y="873005.2862764437" />
		<node id="AV2OE" x="1057635.9515456848" y="872945.1658697849" />
		<node id="AV2OEATE" x="1057090.6216883652" y="873040.094367467" />
		<node id="AV2OEBEL" x="1057597.0290600855" y="872941.4268954803" />
		<node id="AV2OEC20" x="1057335.2654670938" y="873008.9869445609" />
		<node id="BELAL1" x="1061857.7826396944" y="872627.5314519628" />
		<node id="BELAL2" x="1061891.8637157632" y="872623.4962519936" />
		<node id="BUITRE1" x="1059733.6052340479" y="864703.9549234675" />
		<node id="BUITRE2" x="1059680.2435677939" y="864736.3628001736" />
		<node id="C.PALOS1" x="1061635.0129422897" y="872141.1715594829" />
		<node id="C.PALOS2" x="1061644.2757944055" y="872136.4163209521" />
		<node id="C102K27C" x="1066500.9546390043" y="869597.138131391" />
		<node id="C10K10" x="1060546.8859821998" y="872884.5872373504" />
		<node id="C10K13" x="1060594.7558596306" y="872572.4002851079" />
		<node id="C10K19" x="1060664.5365663106" y="872053.9580944341" />
		<node id="C10K22" x="1060698.9686213494" y="871758.7822235263" />
		<node id="C10K31" x="1060619.3600881349" y="870891.7636751492" />
		<node id="C10K32" x="1060532.5104213515" y="870865.9107562804" />
		<node id="C10K32A" x="1060424.4663381802" y="870656.4787842279" />
		<node id="C10K33" x="1060470.4208848292" y="870616.8795598841" />
		<node id="C10K332" x="1060311.3167599412" y="870303.3776932438" />
		<node id="C10K35" x="1060404.4068492583" y="870429.0341561738" />
		<node id="C10K38A" x="1060303.0873149065" y="870117.5014353718" />
		<node id="C10K39" x="1060209.4447726205" y="869983.458188772" />
		<node id="C10K42" x="1060119.4027194807" y="869706.9494563399" />
		<node id="C10K42A" x="1060169.3428112017" y="869716.1626211022" />
		<node id="C10K44" x="1060088.7907987437" y="869469.0556496229" />
		<node id="C10K44A" x="1060005.8623826758" y="869384.351007473" />
		<node id="C10K48B" x="1059963.8059997065" y="869077.0909246125" />
		<node id="C10K49" x="1059900.8458522325" y="869055.8601818351" />
		<node id="C10K50" x="1059795.0861922787" y="868727.369167302" />
		<node id="C10K53" x="1059838.6272279255" y="868700.1170595593" />
		<node id="C10K57" x="1059739.7085837561" y="868392.4561419704" />
		<node id="C10K61" x="1059666.8302176928" y="868330.3972320869" />
		<node id="C10K63" x="1059528.842775918" y="867889.0012319677" />
		<node id="C10K64A" x="1059575.7022669895" y="867889.9494987377" />
		<node id="C10K66A" x="1059443.2550389497" y="867475.8034188973" />
		<node id="C10K70" x="1059359.3680594915" y="867223.1976031467" />
		<node id="C10K73" x="1059253.2318283953" y="866898.7626563433" />
		<node id="C10OEK25" x="1058661.644784635" y="871518.2861759563" />
		<node id="C10OEK37" x="1058473.2090913479" y="871154.3644317115" />
		<node id="C11226H3" x="1067433.2569503451" y="870247.8364984907" />
		<node id="C11226J5" x="1067299.7056860265" y="870021.1457975181" />
		<node id="C112K26E" x="1067542.9626720243" y="870446.6505982893" />
		<node id="C112K26L" x="1067191.5608840694" y="869840.8869598351" />
		<node id="C112K26Q" x="1067083.3611792352" y="869650.0906809361" />
		<node id="C112K27" x="1066951.5750086645" y="869413.1119388188" />
		<node id="C112K27G" x="1066854.567412103" y="869241.7073987743" />
		<node id="C11OEK15" x="1057606.7820239374" y="874586.9361831046" />
		<node id="C11OEK24" x="1058749.3133848633" y="872405.0566174887" />
		<node id="C11OK15A" x="1057609.7052108808" y="874547.0671223729" />
		<node id="C121122A" x="1066973.999564765" y="868504.3680029431" />
		<node id="C121C121" x="1067094.4417050732" y="868718.6088124107" />
		<node id="C121C122" x="1066952.3373499648" y="868491.2690174258" />
		<node id="C121K25" x="1068021.7417698954" y="870590.8377865312" />
		<node id="C121K25B" x="1068034.5557623731" y="870537.2124391454" />
		<node id="C121K263" x="1067769.929869694" y="869883.8574403021" />
		<node id="C121K26E" x="1067947.8941577503" y="870217.0147995971" />
		<node id="C121K26F" x="1067866.6440245484" y="870123.7037929975" />
		<node id="C121K26I" x="1067753.6298877334" y="869884.9529385475" />
		<node id="C121K26J" x="1067656.6983091077" y="869694.5025331429" />
		<node id="C121K26K" x="1067658.7194262575" y="869719.5688979884" />
		<node id="C121K26P" x="1067468.727414521" y="869364.2889829662" />
		<node id="C121K26Q" x="1067462.8394240986" y="869352.5201856751" />
		<node id="C121K26R" x="1067460.2005566747" y="869376.4478923841" />
		<node id="C121K27F" x="1067337.185548751" y="869131.609365751" />
		<node id="C121K27J" x="1067252.9821416405" y="869020.9719691937" />
		<node id="C121K28D" x="1067080.9224787024" y="868715.4674866877" />
		<node id="C122K25" x="1068008.731684906" y="870951.5199376841" />
		<node id="C12328D3" x="1067486.6050840581" y="868525.0560049482" />
		<node id="C12328D7" x="1067372.1381475802" y="868333.1509411924" />
		<node id="C123AK28" x="1067418.5790369052" y="867920.3618294692" />
		<node id="C123K23" x="1068235.4838721915" y="870581.9430107102" />
		<node id="C123K26" x="1068068.8029818984" y="869984.0658340509" />
		<node id="C123K262" x="1067890.2888645628" y="869639.7267366489" />
		<node id="C123K26A" x="1068170.1600331885" y="870203.7018055833" />
		<node id="C123K26B" x="1068212.5270068196" y="870278.0052661727" />
		<node id="C123K26H" x="1067989.054693676" y="869858.37875783" />
		<node id="C123K26J" x="1067856.725504706" y="869604.9022424491" />
		<node id="C123K26M" x="1067755.5963513996" y="869412.7582678588" />
		<node id="C123K26R" x="1067698.0553394908" y="869316.8826364987" />
		<node id="C123K26S" x="1067629.2424187262" y="869178.7002532469" />
		<node id="C123K27B" x="1067569.1162993424" y="869068.6926196589" />
		<node id="C123K27C" x="1067546.150765378" y="869066.0661114648" />
		<node id="C123K281" x="1067339.0638493004" y="868306.0369749187" />
		<node id="C123K28A" x="1067520.5035897135" y="868813.4573075883" />
		<node id="C123K28B" x="1067512.6138247258" y="868793.331488771" />
		<node id="C123K28D" x="1067473.264535026" y="868532.8504407983" />
		<node id="C13C14" x="1061144.5849408677" y="871003.8450336251" />
		<node id="C13C141" x="1061098.4487069813" y="870982.1928534111" />
		<node id="C13D231" x="1061042.7114068144" y="871393.8384292123" />
		<node id="C13D232" x="1061072.2930714835" y="871376.6541727288" />
		<node id="C13K100" x="1060047.7700268372" y="864818.5512820464" />
		<node id="C13K100U" x="1060041.11728388" y="865013.358470949" />
		<node id="C13K101A" x="1060031.9971247003" y="864258.9612680749" />
		<node id="C13K20" x="1061010.7426102774" y="871966.6419597283" />
		<node id="C13K21" x="1061037.8593255833" y="871993.9661143341" />
		<node id="C13K22B" x="1061049.0522009523" y="871747.9543767485" />
		<node id="C13K231" x="1061023.037243159" y="871680.9447007538" />
		<node id="C13K29B" x="1061005.896710693" y="870780.8172348703" />
		<node id="C13K32" x="1060918.3230713839" y="870510.9437601189" />
		<node id="C13K32A" x="1060987.1684873705" y="870658.580942283" />
		<node id="C13K341" x="1060841.497546003" y="870283.1900183442" />
		<node id="C13K342" x="1060890.628675523" y="870357.98455473" />
		<node id="C13K37" x="1060761.6318483856" y="870026.9296064363" />
		<node id="C13K39" x="1060748.0741358143" y="869929.5776242929" />
		<node id="C13K41A1" x="1060626.0250245892" y="869592.5974977103" />
		<node id="C13K41A2" x="1060636.213067443" y="869590.94453096" />
		<node id="C13K44" x="1060525.626650742" y="869288.0683978397" />
		<node id="C13K44A" x="1060526.3310841755" y="869243.1288724953" />
		<node id="C13K47" x="1060450.7413332465" y="869064.647908995" />
		<node id="C13K47A" x="1060460.0045873113" y="869059.492224579" />
		<node id="C13K49A" x="1060358.6164227538" y="868811.3293809023" />
		<node id="C13K50" x="1060370.834931416" y="868766.1818297845" />
		<node id="C13K551" x="1060268.052995793" y="868525.2671057261" />
		<node id="C13K552" x="1060283.453132309" y="868478.09434785" />
		<node id="C13K56" x="1060189.8425400732" y="868283.9682592403" />
		<node id="C13K57" x="1060189.1583948303" y="868184.2583522018" />
		<node id="C13K59" x="1060075.4224856046" y="867931.2356311918" />
		<node id="C13K65" x="1060078.0269403625" y="867856.5625065183" />
		<node id="C13K65AB" x="1059975.916276193" y="867626.2470104106" />
		<node id="C13K671" x="1059934.7951265543" y="867299.0827278313" />
		<node id="C13K68" x="1059972.506689531" y="867429.4071613221" />
		<node id="C13K69" x="1059948.5413543691" y="867172.5954858438" />
		<node id="C13K701" x="1059906.096862095" y="866947.9653997631" />
		<node id="C13K75" x="1059878.3182956234" y="866609.0127827529" />
		<node id="C13K7572" x="1059919.8283596914" y="866847.8334208037" />
		<node id="C13K78" x="1059899.832457873" y="866556.4977836632" />
		<node id="C13K801" x="1059865.7205801844" y="866280.8803605466" />
		<node id="C13K802" x="1059897.2351587443" y="866286.9500822647" />
		<node id="C13K83" x="1059936.0399221105" y="865895.2001342338" />
		<node id="C13K831" x="1059931.9334782849" y="865785.3822261587" />
		<node id="C13K86" x="1059995.2201307646" y="865556.6950881551" />
		<node id="C13K87" x="1059992.9345681078" y="865337.831113276" />
		<node id="C13K89" x="1060015.1318330702" y="864944.0139915787" />
		<node id="C13OC55A" x="1057026.888986744" y="868757.9899668817" />
		<node id="C13OECJR" x="1056329.5508730663" y="868657.8510148542" />
		<node id="C13OEK55" x="1056972.63348835" y="868794.3306130725" />
		<node id="C13OEPPC" x="1056357.6463067464" y="868647.3294898327" />
		<node id="C13OK15" x="1058187.8930851368" y="872561.7748121945" />
		<node id="C14K31" x="1061076.3075783274" y="870620.3270405364" />
		<node id="C14K32" x="1061101.8978814548" y="870620.3726773758" />
		<node id="C14K33A" x="1061097.7541614908" y="870255.5369871706" />
		<node id="C14K34" x="1061119.4755420885" y="870274.1948950186" />
		<node id="C14K37" x="1061119.5108377286" y="869888.6283400977" />
		<node id="C14K38A" x="1061140.889459943" y="869857.830953626" />
		<node id="C14K40" x="1061097.5102659361" y="869658.5714160295" />
		<node id="C14K40A" x="1061106.5459629758" y="869619.9343399782" />
		<node id="C14K42BS" x="1061028.6906842112" y="869409.9341055665" />
		<node id="C14K43" x="1061051.1638772907" y="869408.4728642674" />
		<node id="C14K442" x="1060946.5309859435" y="869116.1657803915" />
		<node id="C14K46" x="1060954.4282820367" y="869070.4319172625" />
		<node id="C14K47" x="1060870.5317287704" y="868843.8421048975" />
		<node id="C14K49" x="1060870.4209600543" y="868766.9866548358" />
		<node id="C14K50" x="1060769.2301910417" y="868498.8874880694" />
		<node id="C14K53" x="1060786.7526000778" y="868464.4020829123" />
		<node id="C14K54" x="1060707.9703708387" y="868253.4198604634" />
		<node id="C14K56" x="1060725.0224873924" y="868231.0972293793" />
		<node id="C14K58" x="1060621.5602838923" y="867937.410336101" />
		<node id="C14K64B" x="1060655.478073078" y="867951.3751561212" />
		<node id="C14K65" x="1060568.1160089623" y="867680.9796902966" />
		<node id="C14K66" x="1060597.6203429063" y="867636.8869021204" />
		<node id="C14K66A" x="1060574.820923492" y="867449.6500206717" />
		<node id="C14K6867" x="1060587.6406636434" y="867379.1294866707" />
		<node id="C14K69A" x="1060559.8484443212" y="867068.7742170835" />
		<node id="C14K70" x="1060583.0824105775" y="867086.7272160967" />
		<node id="C14K72" x="1060555.0739300747" y="866666.5251467818" />
		<node id="C14K76" x="1060575.2859389477" y="866623.9619861213" />
		<node id="C14K832" x="1060470.481774929" y="865966.0260953286" />
		<node id="C14K84" x="1060492.5848282308" y="865965.9157413661" />
		<node id="C14K85A1" x="1060478.0105379864" y="865697.0975918908" />
		<node id="C14K85B" x="1060498.163775137" y="865706.0174647529" />
		<node id="C14OEK12" x="1057507.1781274439" y="874520.7167617609" />
		<node id="C14OK121" x="1057508.1067220455" y="874460.295897137" />
		<node id="C14OK15" x="1058179.0186551197" y="872533.4795098809" />
		<node id="C14OK23C" x="1058388.10374634" y="872336.0811411409" />
		<node id="C14OK24B" x="1058302.2289332475" y="872392.3394168396" />
		<node id="C14OK24C" x="1058359.2786820864" y="872381.2505767285" />
		<node id="C15K16" x="1061270.4686264764" y="872338.260077528" />
		<node id="C15K18A" x="1061271.3948945499" y="872177.5463956107" />
		<node id="C15K19A" x="1061293.0127435208" y="872107.21454914" />
		<node id="C15K23" x="1061260.0582907603" y="871656.8146823259" />
		<node id="C15K29A" x="1061279.8416194506" y="870644.680480342" />
		<node id="C15K33" x="1061288.6135698676" y="870367.1521646639" />
		<node id="C16K100" x="1060772.4228006855" y="863985.4351325899" />
		<node id="C16K1001" x="1060907.0423960823" y="864436.5673734946" />
		<node id="C16K103" x="1060688.5376111288" y="863836.961227128" />
		<node id="C16K46A" x="1061332.1951540813" y="868923.9412956676" />
		<node id="C16K49A" x="1061225.364929363" y="868587.5220689516" />
		<node id="C16K53" x="1061117.6011918106" y="868206.8083983833" />
		<node id="C16K56" x="1061140.041911669" y="868208.1725202673" />
		<node id="C16K561" x="1061084.8930984042" y="867748.9129321045" />
		<node id="C16K65" x="1061109.2802074135" y="867694.8947010844" />
		<node id="C16K68" x="1061084.4373847418" y="867356.2811354288" />
		<node id="C16K682" x="1061061.6010829685" y="867289.9790032858" />
		<node id="C16K69" x="1061075.50257781" y="867162.5086940042" />
		<node id="C16K692" x="1061046.0840607567" y="867052.9227514471" />
		<node id="C16K73" x="1061016.800715746" y="866596.9348035394" />
		<node id="C16K75A" x="1061041.1408205905" y="866571.1760604094" />
		<node id="C16K83" x="1060991.0770033023" y="866122.1188400411" />
		<node id="C16K83C" x="1061003.618483591" y="865997.8723771382" />
		<node id="C16K85" x="1060965.606362046" y="865745.2300948056" />
		<node id="C16K85B" x="1060983.5803459054" y="865677.293479884" />
		<node id="C16K90UR" x="1060962.0431214364" y="865277.2763134381" />
		<node id="C16K93" x="1060949.2779410796" y="865085.0080061326" />
		<node id="C16K98" x="1060918.5015715298" y="864645.5760852273" />
		<node id="C17K29B" x="1061452.2372534163" y="870868.4038091361" />
		<node id="C17K32" x="1061465.9326594344" y="870617.8484584952" />
		<node id="C17K33A" x="1061477.0069529067" y="870364.6497615232" />
		<node id="C17K37A" x="1061494.1060640763" y="869992.7299688581" />
		<node id="C18A6N" x="1060748.06419321" y="874474.7376362815" />
		<node id="C18CARU1" x="1060756.2602906998" y="861528.114855338" />
		<node id="C18ICESI" x="1060733.17019996" y="861193.0970986752" />
		<node id="C18K105" x="1060630.369827524" y="863686.2901294834" />
		<node id="C18K106" x="1060736.3908937029" y="863389.8637969961" />
		<node id="C18K108" x="1060744.5170828905" y="863431.5205935474" />
		<node id="C18K111" x="1060797.9566497712" y="863096.7909319694" />
		<node id="C18K1121" x="1060810.63194125" y="862841.7501284091" />
		<node id="C18K114" x="1060783.5880508996" y="863120.6202019759" />
		<node id="C18K1142" x="1060795.9875505932" y="862863.858573552" />
		<node id="C18K114A" x="1060827.891938731" y="862560.1111127685" />
		<node id="C18K114B" x="1060807.1919539564" y="862480.3867903472" />
		<node id="C18K118" x="1060765.3330364735" y="861977.8249909326" />
		<node id="C18K122" x="1060744.014179243" y="861510.1382835301" />
		<node id="C18K125" x="1060724.7418138073" y="861248.6913899237" />
		<node id="C18K125A" x="1060662.0449258876" y="860854.7042799424" />
		<node id="C18K126" x="1060570.5839311425" y="860444.573956762" />
		<node id="C18K127" x="1060526.8917084672" y="860069.8579047273" />
		<node id="C18K1271" x="1060538.276895796" y="860081.5063770135" />
		<node id="C18K1272" x="1060679.6457413926" y="860846.6038800767" />
		<node id="C18K127C" x="1060556.9561441634" y="860302.0989392231" />
		<node id="C18K1291" x="1060529.5804154521" y="859896.2439985148" />
		<node id="C18K1301" x="1060452.6233999887" y="859605.0297789928" />
		<node id="C18K1302" x="1060469.975869456" y="859602.1829799274" />
		<node id="C18K137" x="1060351.454756781" y="859329.2231891281" />
		<node id="C18K141" x="1060191.0184598118" y="858868.8644567133" />
		<node id="C18K1412" x="1060374.0311645353" y="859311.5124590736" />
		<node id="C18K1413" x="1060275.6273730248" y="859114.1905101908" />
		<node id="C18K1414" x="1060300.0812341492" y="859108.090898929" />
		<node id="C18K142" x="1060215.843585779" y="858862.7351646152" />
		<node id="C18K146" x="1060004.0714840412" y="858335.2615368445" />
		<node id="C18K150" x="1060030.8870169746" y="858358.0374379117" />
		<node id="C18K1682" x="1059795.3846958824" y="857694.6264836292" />
		<node id="C18K170" x="1059729.5477137945" y="857499.2893008571" />
		<node id="C18K1701" x="1059712.408757803" y="857507.5438845278" />
		<node id="C18NA3N" x="1060868.3777696523" y="874275.0192821263" />
		<node id="C18UJAV1" x="1060778.849779873" y="861987.0783807809" />
		<node id="C18UJAV2" x="1060792.763972208" y="862001.0627409063" />
		<node id="C1AK73B1" x="1057818.6533103134" y="866683.4516690384" />
		<node id="C1AOEK72" x="1057820.58718643" y="866877.5254366433" />
		<node id="C1AOEK75" x="1057801.1338946538" y="866542.0810212157" />
		<node id="C1CK70" x="1058195.6489112226" y="866939.1928748463" />