<?xml version="1.0" encoding="UTF-8"?>
<!DOCTYPE network SYSTEM "http://www.matsim.org/files/dtd/network_v1.dtd">
<network>

<!-- ====================================================================== -->

	<nodes>
		<node id="1" x="1060098.5671258336" y="864518.5795560447" />
		<node id="10" x="1058952.3759579004" y="870334.6207141194" />
		<node id="11" x="1059382.3618967105" y="871265.8964586247" />
		<node id="12" x="1059624.226522833" y="871607.4280580558" />
		<node id="13" x="1060061.3816892507" y="872145.432270805" />
		<node id="14" x="1060560.9369008932" y="872418.4515370607" />
		<node id="15" x="1061134.800677466" y="872461.1753461253" />
		<node id="16" x="1061875.6611656398" y="872626.5892261057" />
		<node id="17" x="1062555.767446643" y="872750.0276591601" />
		<node id="18" x="1063255.4442814386" y="872701.1398639351" />
		<node id="19" x="1063928.1879298992" y="872643.274065902" />
		<node id="2" x="1059710.8477143487" y="864723.4341627909" />
		<node id="20" x="1064303.6311630832" y="872595.3752244754" />
		<node id="21" x="1064619.6352447523" y="872559.82881458" />
		<node id="22" x="1065618.457769661" y="872754.2257305066" />
		<node id="23" x="1061255.8522249302" y="872557.1030943185" />
		<node id="24" x="1061071.0455105705" y="873166.6741076817" />
		<node id="25" x="1060828.199668245" y="873758.8039713517" />
		<node id="26" x="1060818.1655318527" y="874029.2027914163" />
		<node id="27" x="1060972.3098798888" y="872567.7790609734" />
		<node id="28" x="1060832.0054611547" y="873097.5686634199" />
		<node id="29" x="1060664.4994085354" y="873647.2670990844" />
		<node id="3" x="1059421.7306505726" y="865217.0360120239" />
		<node id="30" x="1061376.2717668433" y="874431.6178470261" />
		<node id="31" x="1061323.5368923591" y="874221.8370563503" />
		<node id="32" x="1061674.2859597276" y="874389.564296186" />
		<node id="33" x="1062243.9066229707" y="874700.206993643" />
		<node id="34" x="1062696.2118685339" y="875069.4288240165" />
		<node id="35" x="1062975.714989474" y="875435.8974676129" />
		<node id="36" x="1063431.3702685416" y="875903.4667367726" />
		<node id="37" x="1063928.3870485092" y="876402.0117266107" />
		<node id="38" x="1064370.019567893" y="876756.005617517" />
		<node id="39" x="1060942.319720835" y="864096.9293698354" />
		<node id="4" x="1059183.1226477535" y="866417.9527112858" />
		<node id="40" x="1058805.902099948" y="869399.8763418444" />
		<node id="41" x="1060868.992643611" y="872975.1392153093" />
		<node id="42" x="1060695.1362062162" y="873546.6598554185" />
		<node id="43" x="1061161.597638581" y="874497.9449022135" />
		<node id="44" x="1061347.227290894" y="874751.8543717174" />
		<node id="45" x="1061995.7324130486" y="875967.2535257394" />
		<node id="46" x="1062278.8828110497" y="876417.5548038945" />
		<node id="47" x="1062683.2493644084" y="877059.0373508757" />
		<node id="48" x="1061644.2384718463" y="872146.565843198" />
		<node id="49" x="1062202.9765188207" y="871886.3311570929" />
		<node id="5" x="1059070.6977947638" y="867087.8868734067" />
		<node id="50" x="1062631.0847726432" y="871571.3846608428" />
		<node id="51" x="1063047.4704461058" y="871300.8362898517" />
		<node id="52" x="1063593.6558168028" y="870743.4381040786" />
		<node id="53" x="1064781.7157186496" y="870490.4135211466" />
		<node id="54" x="1065199.751590581" y="870129.4272611414" />
		<node id="55" x="1065603.4258050143" y="869818.0287419555" />
		<node id="56" x="1063203.2873370168" y="877613.519849463" />
		<node id="57" x="1058720.4393502846" y="869406.9431123228" />
		<node id="58" x="1066027.3829430786" y="872466.6134468119" />
		<node id="6" x="1059013.5059440893" y="867596.0395308291" />
		<node id="7" x="1058974.960032481" y="868167.0356409189" />
		<node id="7AGO1" x="1065610.7775257844" y="872755.3015803825" />
		<node id="7AGO2" x="1065595.9683478763" y="872743.6810694345" />
		<node id="7AGO3" x="1065568.5555282042" y="872746.0593536097" />
		<node id="7AGO4" x="1065648.7425907298" y="872760.484958595" />
		<node id="8" x="1058904.0779629084" y="868808.8437622336" />
		<node id="9" x="1058805.2250714088" y="869819.0486171363" />
		<node id="A.SANI10" x="1066101.222611118" y="872541.6258688447" />
		<node id="A.SANI11" x="1066064.1157017024" y="872546.5790279491" />
		<node id="A.SANI12" x="1066092.710570056" y="872578.7271162611" />
		<node id="A.SANI13" x="1065998.4924791679" y="872591.2938112443" />
		<node id="A.SANI14" x="1065996.2309913975" y="872553.9392507428" />
		<node id="A.SANI15" x="1066005.3789670381" y="872537.7255529279" />
		<node id="A.SANI16" x="1066089.730075167" y="872555.7181983618" />
		<node id="A.SANI17" x="1066111.8003745743" y="872556.3766681128" />
		<node id="A.SANIN1" x="1066113.5704548697" y="872588.692711648" />
		<node id="A.SANIN2" x="1066051.3049138198" y="872596.8249612403" />
		<node id="A.SANIN3" x="1065997.5280735535" y="872603.5183010374" />
		<node id="A.SANIN4" x="1066114.258650023" y="872575.6994875253" />
		<node id="A.SANIN5" x="1066056.0971299736" y="872583.5887986532" />
		<node id="A.SANIN6" x="1066017.6942258987" y="872589.0022998005" />
		<node id="A.SANIN7" x="1066068.1811890972" y="872560.0352448068" />
		<node id="A.SANIN8" x="1066014.690081529" y="872553.9817090604" />
		<node id="A15OC9A1" x="1058256.405747043" y="874381.1786093374" />
		<node id="A15OC9A2" x="1058258.4346164854" y="874395.678264456" />
		<node id="A15OC9A3" x="1058465.5879996764" y="874336.017229525" />
		<node id="A15OEC7" x="1058662.9631820011" y="874153.8494467516" />
		<node id="A15OEC71" x="1058651.4588895" y="874137.3783448768" />
		<node id="A15OEC9A" x="1058503.1926276877" y="874320.7101633912" />
		<node id="A1K2" x="1059471.163890046" y="873389.89559922" />
		<node id="A1NC10" x="1060363.7662078585" y="873824.8399685377" />
		<node id="A1NC171" x="1060785.3837708673" y="874152.5312898097" />
		<node id="A1NC71" x="1060050.0424998228" y="873472.4535019872" />
		<node id="A2AN72BN" x="1063670.4038072962" y="877909.9076414676" />
		<node id="A2ANC71N" x="1063461.2269009748" y="877696.7217020018" />
		<node id="A2BBSN" x="1063778.195456459" y="878052.1047399752" />
		<node id="A2BNC25" x="1061422.0924827668" y="875260.6082410775" />
		<node id="A2BNC34" x="1061280.7840038831" y="875733.5158285383" />
		<node id="A2BNC35" x="1061262.3554847362" y="875735.5940090343" />
		<node id="A2BNC75C" x="1063947.129533413" y="878251.8431079751" />
		<node id="A2CNC60" x="1063379.2969157454" y="877203.3760319203" />
		<node id="A2CNC74" x="1063772.0529061593" y="878304.8462192755" />
		<node id="A2CNC75C" x="1063873.4791442323" y="878357.8657898995" />
		<node id="A2DNC57D" x="1063264.560307516" y="877108.1735533166" />
		<node id="A2EC55B" x="1063169.1312750631" y="877037.8343861682" />
		<node id="A2FC25" x="1061523.0670236198" y="874929.6851752432" />
		<node id="A2GNC57" x="1063099.1251401773" y="877244.6448101964" />
		<node id="A2GNC58" x="1063188.587253608" y="877329.0189594903" />
		<node id="A2NA1" x="1059815.6547023293" y="873487.8940866212" />
		<node id="A2NC24" x="1061462.4866178895" y="874643.422071842" />
		<node id="A2NC34" x="1062202.6617939202" y="875473.3264744545" />
		<node id="A2NC38" x="1062381.5197595542" y="875763.2534467358" />
		<node id="A2NC57AN" x="1063524.5196438178" y="877008.4061599906" />
		<node id="A2NC62AN" x="1063637.4256530574" y="877168.2375080346" />
		<node id="A2NC75AN" x="1064055.3577392718" y="878034.3043852572" />
		<node id="A2NC75C" x="1064185.0549191535" y="878190.9212364454" />
		<node id="A2NC75IN" x="1064202.258091669" y="878224.046207016" />
		<node id="A3NC17" x="1060880.5302398603" y="874130.469444891" />
		<node id="A3NC23D" x="1061538.1730486995" y="875068.4763336759" />
		<node id="A3NC24" x="1061514.5980400224" y="875160.4304589672" />
		<node id="A3NC31" x="1061717.5380708172" y="875549.619841269" />
		<node id="A3NC32A" x="1061724.042340167" y="875513.1310783535" />
		<node id="A3NC45" x="1062263.7295694207" y="876441.6144832657" />
		<node id="A3NC47A" x="1062373.912681162" y="876617.50802293" />
		<node id="A3NC52" x="1062715.9776040444" y="877087.0782171828" />
		<node id="A3NC59" x="1062996.4427546319" y="877533.4522817167" />
		<node id="A3NC61A" x="1063014.8690598975" y="877586.3290890201" />
		<node id="A40OEC51" x="1058823.6801256742" y="873838.9297652533" />
		<node id="A4NC10" x="1060243.278626391" y="873843.7539189967" />
		<node id="A4NC18" x="1060905.389500049" y="874325.1714091995" />
		<node id="A4NC21" x="1061075.830446658" y="874554.9152592858" />
		<node id="A4NC23" x="1061240.0801493071" y="874814.943624594" />
		<node id="A4NC3" x="1059277.941493769" y="873428.0610510528" />
		<node id="A4NC5" x="1059045.330732658" y="873690.4120492577" />
		<node id="A4NC6" x="1058768.0380515854" y="873761.7980817275" />
		<node id="A4OEC5" x="1058817.557401488" y="873858.5858123729" />
		<node id="A5NC23" x="1061066.6419439306" y="874698.3609954055" />
		<node id="A6ANC21" x="1060710.3968955742" y="874758.3313608846" />
		<node id="A6ANC22" x="1060724.517210979" y="874841.3080041958" />
		<node id="A6ANC223" x="1060815.7643749013" y="874835.5240411746" />
		<node id="A6ANC25" x="1060726.3563575475" y="875186.1445902205" />
		<node id="A6ANC27" x="1060816.410536345" y="875427.0837580032" />
		<node id="A6ANC29" x="1060987.3855291556" y="875690.5560296876" />
		<node id="A6ANC35" x="1061076.5804182694" y="875817.2258870093" />
		<node id="A6BISC35" x="1061132.2312846216" y="875820.9141340628" />
		<node id="A6NA70N" x="1061538.1364345215" y="877972.2160785366" />
		<node id="A6NC13" x="1060446.0315330036" y="874087.890654276" />
		<node id="A6NC16" x="1060695.4925998785" y="874429.1834990731" />
		<node id="A6NC21" x="1060820.8666194177" y="874767.088020453" />
		<node id="A6NC23" x="1060811.6741095479" y="874970.0032703679" />
		<node id="A6NC252" x="1060907.0951063652" y="875219.4240397986" />
		<node id="A6NC26A" x="1060941.738918947" y="875308.9857142029" />
		<node id="A6NC28" x="1061066.2122791572" y="875492.8420577091" />
		<node id="A6NC30-2" x="1061175.5652482926" y="875668.3639941395" />
		<node id="A6NC34" x="1061218.7026711064" y="875746.6578897566" />
		<node id="A6NC372" x="1061224.0000092145" y="876137.2662276406" />
		<node id="A6NC37B" x="1061224.2377964868" y="876152.5335249805" />
		<node id="A6NC381" x="1061210.8001059743" y="876224.6194999487" />
		<node id="A6NC40-2" x="1061372.4711301653" y="876557.5703295951" />
		<node id="A6NC411" x="1061343.5680850486" y="876577.4584582578" />
		<node id="A6NC44BA" x="1061305.4502826475" y="876942.3618262226" />
		<node id="A6NC45" x="1061322.3710329216" y="877038.4256954519" />
		<node id="A6NC471" x="1061294.0557628877" y="877003.5454533183" />
		<node id="A6NC472" x="1061327.767818144" y="876993.4279885115" />
		<node id="A6NC48" x="1061324.3224550497" y="877394.8752006909" />
		<node id="A6NC49" x="1061312.3572678836" y="877481.7680597214" />
		<node id="A6NC501" x="1061296.8370577903" y="877419.3411907267" />
		<node id="A6NC502" x="1061334.241499337" y="877323.8919034447" />
		<node id="A6NC52" x="1061381.5220377457" y="877547.2984055732" />
		<node id="A6NC528" x="1061502.5550015394" y="877696.2890804786" />
		<node id="A6NC652" x="1061562.7734390653" y="877961.5404722634" />
		<node id="A6NC67" x="1061318.594107401" y="877478.5161346529" />
		<node id="A9AOE22A" x="1056992.8897667374" y="873907.3787876472" />
		<node id="A9AOE23B" x="1057017.624024776" y="873889.9443871938" />
		<node id="A9AOE24" x="1056926.793388376" y="873924.7599270362" />
		<node id="A9AOE241" x="1056890.6513718239" y="873917.2761165118" />
		<node id="A9OE" x="1057349.6416964447" y="874331.626090045" />
		<node id="A9OE1" x="1057194.3030137972" y="874129.6363538634" />
		<node id="A9OE2" x="1057153.0144096564" y="874106.7908064317" />
		<node id="A9OE3" x="1057408.3828611174" y="874387.5333375758" />
		<node id="ALAMOS1" x="1062683.3841409932" y="877082.6972831498" />
		<node id="ALAMOS2" x="1062698.5558593157" y="877107.9559569778" />
		<node id="ALUISA" x="1057809.730882031" y="865650.9115255028" />
		<node id="AMANECE1" x="1065188.5050303105" y="870131.0340749052" />
		<node id="AMANECE2" x="1065200.152063577" y="870115.1900725833" />
		<node id="ATGI1" x="1063236.056209712" y="872708.8863842495" />
		<node id="ATGI2" x="1063270.3302283487" y="872692.6875223404" />
		<node id="AUT-JAM1" x="1061640.4870674005" y="858651.1738239815" />
		<node id="AV-MELE1" x="1057884.7482938508" y="861999.2035288069" />
		<node id="AV-MELE2" x="1057824.9672666197" y="862026.8174688958" />
		<node id="AV-MELEN" x="1058702.8221834146" y="861608.2696483217" />
		<node id="AV2OC201" x="1057309.7089734548" y="873005.2862684671" />
		<node id="AV2OE" x="1057635.9515456893" y="872945.1658618118" />
		<node id="AV2OEATE" x="1057090.6216883697" y="873040.0943594881" />
		<node id="AV2OEBEL" x="1057597.0290600897" y="872941.4268875078" />
		<node id="AV2OEC20" x="1057335.2654670982" y="873008.986936584" />
		<node id="BELAL1" x="1061857.782639699" y="872627.5314440099" />
		<node id="BELAL2" x="1061891.8637157679" y="872623.4962440409" />
		<node id="BUITRE1" x="1059733.605234052" y="864703.9549159982" />
		<node id="BUITRE2" x="1059680.243567798" y="864736.3627927025" />
		<node id="C.PALOS1" x="1061635.0129422944" y="872141.1715515603" />
		<node id="C.PALOS2" x="1061644.2757944101" y="872136.4163130295" />
		<node id="C102K27C" x="1066500.9546390092" y="869597.1381236258" />
		<node id="C10K10" x="1060546.8859822045" y="872884.5872293814" />
		<node id="C10K13" x="1060594.755859635" y="872572.4002771584" />
		<node id="C10K19" x="1060664.536566315" y="872053.9580865167" />
		<node id="C10K22" x="1060698.968621354" y="871758.7822156275" />
		<node id="C10K31" x="1060619.3600881393" y="870891.763667304" />
		<node id="C10K32" x="1060532.5104213562" y="870865.9107484368" />
		<node id="C10K32A" x="1060424.4663381847" y="870656.478776397" />
		<node id="C10K33" x="1060470.4208848337" y="870616.8795520558" />
		<node id="C10K332" x="1060311.3167599456" y="870303.3776854349" />
		<node id="C10K35" x="1060404.4068492628" y="870429.0341483571" />
		<node id="C10K38A" x="1060303.0873149107" y="870117.5014275742" />
		<node id="C10K39" x="1060209.4447726249" y="869983.4581809826" />
		<node id="C10K42" x="1060119.402719485" y="869706.9494485677" />
		<node id="C10K42A" x="1060169.3428112061" y="869716.1626133292" />
		<node id="C10K44" x="1060088.790798748" y="869469.0556418652" />
		<node id="C10K44A" x="1060005.8623826802" y="869384.3509997205" />
		<node id="C10K48B" x="1059963.8059997107" y="869077.0909168788" />
		<node id="C10K49" x="1059900.845852237" y="869055.8601741029" />
		<node id="C10K50" x="1059795.086192283" y="868727.3691595895" />
		<node id="C10K53" x="1059838.62722793" y="868700.1170518488" />
		<node id="C10K57" x="1059739.7085837603" y="868392.4561342786" />
		<node id="C10K61" x="1059666.830217697" y="868330.3972243987" />
		<node id="C10K63" x="1059528.8427759225" y="867889.0012243064" />
		<node id="C10K64A" x="1059575.7022669937" y="867889.9494910764" />
		<node id="C10K66A" x="1059443.2550389539" y="867475.8034112613" />
		<node id="C10K70" x="1059359.3680594957" y="867223.197595526" />
		<node id="C10K73" x="1059253.2318283995" y="866898.7626487422" />
		<node id="C10OEK25" x="1058661.6447846394" y="871518.2861680721" />
		<node id="C10OEK37" x="1058473.2090913523" y="871154.3644238501" />
		<node id="C11226H3" x="1067433.25695035" y="870247.8364906851" />
		<node id="C11226J5" x="1067299.7056860314" y="870021.1457897266" />
		<node id="C112K26E" x="1067542.9626720292" y="870446.6505904717" />
		<node id="C112K26L" x="1067191.5608840743" y="869840.8869520547" />
		<node id="C112K26Q" x="1067083.36117924" y="869650.0906731676" />
		<node id="C112K27" x="1066951.5750086694" y="869413.1119310649" />
		<node id="C112K27G" x="1066854.567412108" y="869241.7073910309" />
		<node id="C11OEK15" x="1057606.7820239419" y="874586.9361750289" />
		<node id="C11OEK24" x="1058749.3133848677" y="872405.0566095494" />
		<node id="C11OK15A" x="1057609.7052108853" y="874547.0671142995" />
		<node id="C121122A" x="1066973.99956477" y="868504.3679952446" />
		<node id="C121C121" x="1067094.4417050781" y="868718.6088046991" />
		<node id="C121C122" x="1066952.3373499694" y="868491.2690097282" />
		<node id="C121K25" x="1068021.7417699003" y="870590.8377787047" />
		<node id="C121K25B" x="1068034.555762378" y="870537.2124313223" />
		<node id="C121K263" x="1067769.9298696988" y="869883.8574325191" />
		<node id="C121K26E" x="1067947.8941577552" y="870217.0147917939" />
		<node id="C121K26F" x="1067866.6440245535" y="870123.7037851998" />
		<node id="C121K26I" x="1067753.6298877385" y="869884.9529307644" />
		<node id="C121K26J" x="1067656.6983091128" y="869694.5025253716" />
		<node id="C121K26K" x="1067658.7194262624" y="869719.5688902156" />
		<node id="C121K26P" x="1067468.7274145258" y="869364.288975215" />
		<node id="C121K26Q" x="1067462.8394241035" y="869352.5201779248" />
		<node id="C121K26R" x="1067460.2005566796" y="869376.4478846322" />
		<node id="C121K27F" x="1067337.1855487558" y="869131.6093580142" />
		<node id="C121K27J" x="1067252.9821416452" y="869020.9719614638" />
		<node id="C121K28D" x="1067080.9224787073" y="868715.4674789764" />
		<node id="C122K25" x="1068008.7316849108" y="870951.5199298353" />
		<node id="C12328D3" x="1067486.605084063" y="868525.0559972483" />
		<node id="C12328D7" x="1067372.138147585" y="868333.1509335046" />
		<node id="C123AK28" x="1067418.57903691" y="867920.3618218063" />
		<node id="C123K23" x="1068235.4838721966" y="870581.9430028842" />
		<node id="C123K26" x="1068068.8029819033" y="869984.0658262616" />
		<node id="C123K262" x="1067890.2888645676" y="869639.726728881" />
		<node id="C123K26A" x="1068170.1600331934" y="870203.7017977806" />
		<node id="C123K26B" x="1068212.5270068245" y="870278.0052583654" />
		<node id="C123K26H" x="1067989.0546936812" y="869858.3787500486" />
		<node id="C123K26J" x="1067856.7255047108" y="869604.9022346833" />
		<node id="C123K26M" x="1067755.5963514044" y="869412.7582601048" />
		<node id="C123K26R" x="1067698.0553394957" y="869316.8826287505" />
		<node id="C123K26S" x="1067629.242418731" y="869178.7002455074" />
		<node id="C123K27B" x="1067569.1162993473" y="869068.6926119258" />
		<node id="C123K27C" x="1067546.150765383" y="869066.0661037317" />
		<node id="C123K281" x="1067339.0638493053" y="868306.0369672322" />
		<node id="C123K28A" x="1067520.5035897184" y="868813.4572998709" />
		<node id="C123K28B" x="1067512.6138247307" y="868793.3314810549" />
		<node id="C123K28D" x="1067473.2645350308" y="868532.850433098" />
		<node id="C13C14" x="1061144.5849408722" y="871003.8450257727" />
		<node id="C13C141" x="1061098.4487069857" y="870982.1928455601" />
		<node id="C13D231" x="1061042.711406819" y="871393.8384213361" />
		<node id="C13D232" x="1061072.2930714882" y="871376.6541648535" />
		<node id="C13K100" x="1060047.7700268414" y="864818.5512745704" />
		<node id="C13K100U" x="1060041.1172838842" y="865013.3584634615" />
		<node id="C13K101A" x="1060031.9971247045" y="864258.9612606325" />
		<node id="C13K20" x="1061010.7426102818" y="871966.6419518164" />
		<node id="C13K21" x="1061037.859325588" y="871993.9661064206" />
		<node id="C13K22B" x="1061049.052200957" y="871747.9543688503" />
		<node id="C13K231" x="1061023.0372431634" y="871680.9446928597" />
		<node id="C13K29B" x="1061005.8967106973" y="870780.8172270318" />
		<node id="C13K32" x="1060918.3230713883" y="870510.9437522971" />
		<node id="C13K32A" x="1060987.168487375" y="870658.580934452" />
		<node id="C13K341" x="1060841.4975460076" y="870283.1900105365" />
		<node id="C13K342" x="1060890.6286755274" y="870357.9845469176" />
		<node id="C13K37" x="1060761.63184839" y="870026.9295986445" />
		<node id="C13K39" x="1060748.0741358188" y="869929.577616507" />
		<node id="C13K41A1" x="1060626.0250245936" y="869592.5974899451" />
		<node id="C13K41A2" x="1060636.2130674475" y="869590.9445231948" />
		<node id="C13K44" x="1060525.6266507464" y="869288.068390093" />
		<node id="C13K44A" x="1060526.33108418" y="869243.1288647514" />
		<node id="C13K47" x="1060450.741333251" y="869064.647901262" />
		<node id="C13K47A" x="1060460.0045873157" y="869059.4922168463" />
		<node id="C13K49A" x="1060358.616422758" y="868811.3293731849" />
		<node id="C13K50" x="1060370.8349314202" y="868766.1818220699" />
		<node id="C13K551" x="1060268.0529957972" y="868525.267098026" />
		<node id="C13K552" x="1060283.4531323134" y="868478.0943401528" />
		<node id="C13K56" x="1060189.8425400774" y="868283.968251555" />
		<node id="C13K57" x="1060189.1583948345" y="868184.2583445226" />
		<node id="C13K59" x="1060075.422485609" y="867931.235623528" />
		<node id="C13K65" x="1060078.026940367" y="867856.562498859" />
		<node id="C13K65AB" x="1059975.9162761974" y="867626.2470027655" />
		<node id="C13K671" x="1059934.7951265585" y="867299.0827202059" />
		<node id="C13K68" x="1059972.5066895352" y="867429.4071536887" />
		<node id="C13K69" x="1059948.5413543733" y="867172.595478226" />
		<node id="C13K701" x="1059906.0968620991" y="866947.9653921591" />
		<node id="C13K75" x="1059878.3182956276" y="866609.0127751691" />
		<node id="C13K7572" x="1059919.8283596956" y="866847.8334132055" />
		<node id="C13K78" x="1059899.8324578772" y="866556.4977760827" />
		<node id="C13K801" x="1059865.7205801886" y="866280.8803529829" />
		<node id="C13K802" x="1059897.2351587485" y="866286.9500747006" />
		<node id="C13K83" x="1059936.0399221147" y="865895.2001266934" />
		<node id="C13K831" x="1059931.933478289" y="865785.3822186246" />
		<node id="C13K86" x="1059995.2201307688" y="865556.6950806348" />
		<node id="C13K87" x="1059992.934568112" y="865337.8311057689" />
		<node id="C13K89" x="1060015.1318330741" y="864944.0139840953" />
		<node id="C13OC55A" x="1057026.8889867482" y="868757.9899591674" />
		<node id="C13OECJR" x="1056329.5508730705" y="868657.8510071462" />
		<node id="C13OEK55" x="1056972.6334883543" y="868794.330605356" />
		<node id="C13OEPPC" x="1056357.6463067506" y="868647.3294821252" />
		<node id="C13OK15" x="1058187.8930851412" y="872561.7748042456" />
		<node id="C14K31" x="1061076.3075783318" y="870620.327032708" />
		<node id="C14K32" x="1061101.8978814592" y="870620.3726695473" />
		<node id="C14K33A" x="1061097.7541614952" y="870255.5369793647" />
		<node id="C14K34" x="1061119.475542093" y="870274.1948872114" />
		<node id="C14K37" x="1061119.510837733" y="869888.6283323143" />
		<node id="C14K38A" x="1061140.8894599474" y="869857.8309458445" />
		<node id="C14K40" x="1061097.5102659406" y="869658.5714082601" />
		<node id="C14K40A" x="1061106.5459629802" y="869619.9343322113" />
		<node id="C14K42BS" x="1061028.6906842156" y="869409.9340978123" />
		<node id="C14K43" x="1061051.163877295" y="869408.4728565135" />
		<node id="C14K442" x="1060946.530985948" y="869116.1657726555" />
		<node id="C14K46" x="1060954.428282041" y="869070.4319095291" />
		<node id="C14K47" x="1060870.5317287748" y="868843.8420971782" />
		<node id="C14K49" x="1060870.4209600587" y="868766.986647121" />
		<node id="C14K50" x="1060769.2301910461" y="868498.8874803709" />
		<node id="C14K53" x="1060786.7526000822" y="868464.402075216" />
		<node id="C14K54" x="1060707.970370843" y="868253.4198527801" />
		<node id="C14K56" x="1060725.0224873968" y="868231.0972216972" />
		<node id="C14K58" x="1060621.5602838967" y="867937.4103284369" />
		<node id="C14K64B" x="1060655.4780730824" y="867951.3751484562" />
		<node id="C14K65" x="1060568.1160089665" y="867680.9796826481" />
		<node id="C14K66" x="1060597.6203429108" y="867636.8868944745" />
		<node id="C14K66A" x="1060574.8209234963" y="867449.6500130373" />
		<node id="C14K6867" x="1060587.6406636478" y="867379.1294790405" />
		<node id="C14K69A" x="1060559.8484443254" y="867068.7742094721" />
		<node id="C14K70" x="1060583.0824105816" y="867086.7272084843" />
		<node id="C14K72" x="1060555.0739300791" y="866666.5251391947" />
		<node id="C14K76" x="1060575.2859389521" y="866623.9619785367" />
		<node id="C14K832" x="1060470.4817749332" y="865966.0260877836" />
		<node id="C14K84" x="1060492.584828235" y="865965.9157338215" />
		<node id="C14K85A1" x="1060478.0105379906" y="865697.0975843621" />
		<node id="C14K85B" x="1060498.1637751411" y="865706.0174572237" />
		<node id="C14OEK12" x="1057507.1781274483" y="874520.7167536892" />
		<node id="C14OK121" x="1057508.1067220499" y="874460.2958890692" />
		<node id="C14OK15" x="1058179.018655124" y="872533.4795019336" />
		<node id="C14OK23C" x="1058388.103746344" y="872336.0811332061" />
		<node id="C14OK24B" x="1058302.228933252" y="872392.339408901" />
		<node id="C14OK24C" x="1058359.2786820908" y="872381.2505687911" />
		<node id="C15K16" x="1061270.4686264808" y="872338.2600695931" />
		<node id="C15K18A" x="1061271.3948945545" y="872177.5463876856" />
		<node id="C15K19A" x="1061293.0127435252" y="872107.2145412195" />
		<node id="C15K23" x="1061260.058290765" y="871656.8146744332" />
		<node id="C15K29A" x="1061279.841619455" y="870644.6804725121" />
		<node id="C15K33" x="1061288.613569872" y="870367.1521568509" />
		<node id="C16K100" x="1060772.4228006897" y="863985.4351251638" />
		<node id="C16K1001" x="1060907.0423960865" y="864436.5673660417" />
		<node id="C16K103" x="1060688.537611133" y="863836.9612197105" />
		<node id="C16K46A" x="1061332.1951540858" y="868923.9412879432" />
		<node id="C16K49A" x="1061225.3649293673" y="868587.5220612478" />
		<node id="C16K53" x="1061117.6011918148" y="868206.8083907028" />
		<node id="C16K56" x="1061140.0419116735" y="868208.1725125868" />
		<node id="C16K561" x="1061084.8930984084" y="867748.9129244518" />
		<node id="C16K65" x="1061109.2802074177" y="867694.8946934349" />
		<node id="C16K68" x="1061084.4373847463" y="867356.2811277999" />
		<node id="C16K682" x="1061061.601082973" y="867289.9789956609" />
		<node id="C16K69" x="1061075.5025778145" y="867162.5086863871" />
		<node id="C16K692" x="1061046.0840607611" y="867052.9227438367" />
		<node id="C16K73" x="1061016.80071575" y="866596.9347959566" />
		<node id="C16K75A" x="1061041.1408205947" y="866571.1760528281" />
		<node id="C16K83" x="1060991.0770033065" y="866122.1188324867" />
		<node id="C16K83C" x="1061003.618483595" y="865997.8723695914" />
		<node id="C16K85" x="1060965.6063620502" y="865745.230087274" />
		<node id="C16K85B" x="1060983.5803459098" y="865677.2934723566" />
		<node id="C16K90UR" x="1060962.0431214406" y="865277.2763059345" />
		<node id="C16K93" x="1060949.2779410838" y="865085.0079986408" />
		<node id="C16K98" x="1060918.501571534" y="864645.5760777618" />
		<node id="C17K29B" x="1061452.237253421" y="870868.4038012924" />
		<node id="C17K32" x="1061465.932659439" y="870617.848450667" />
		<node id="C17K33A" x="1061477.0069529114" y="870364.6497537105" />
		<node id="C17K37A" x="1061494.1060640807" y="869992.7299610681" />
		<node id="C18A6N" x="1060748.0641932148" y="874474.7376282128" />
		<node id="C18CARU1" x="1060756.260290704" y="861528.1148480573" />
		<node id="C18ICESI" x="1060733.170199964" y="861193.0970914143" />
		<node id="C18K105" x="1060630.369827528" y="863686.290122075" />
		<node id="C18K106" x="1060736.390893707" y="863389.8637896053" />
		<node id="C18K108" x="1060744.5170828945" y="863431.5205861541" />
		<node id="C18K111" x="1060797.9566497754" y="863096.7909245959" />
		<node id="C18K1121" x="1060810.6319412543" y="862841.750121051" />
		<node id="C18K114" x="1060783.5880509038" y="863120.6201946012" />
		<node id="C18K1142" x="1060795.9875505972" y="862863.8585661924" />
		<node id="C18K114A" x="1060827.8919387353" y="862560.111105427" />
		<node id="C18K114B" x="1060807.1919539603" y="862480.3867830102" />
		<node id="C18K118" x="1060765.3330364777" y="861977.8249836254" />
		<node id="C18K122" x="1060744.014179247" y="861510.1382762506" />
		<node id="C18K125" x="1060724.7418138115" y="861248.6913826594" />
		<node id="C18K125A" x="1060662.0449258916" y="860854.7042727012" />
		<node id="C18K126" x="1060570.5839311464" y="860444.5739495447" />
		<node id="C18K127" x="1060526.891708471" y="860069.8578975319" />
		<node id="C18K1271" x="1060538.2768958" y="860081.5063698175" />
		<node id="C18K1272" x="1060679.6457413966" y="860846.6038728359" />
		<node id="C18K127C" x="1060556.9561441673" y="860302.0989320143" />
		<node id="C18K1291" x="1060529.580415456" y="859896.2439913296" />
		<node id="C18K1301" x="1060452.6233999927" y="859605.0297718245" />
		<node id="C18K1302" x="1060469.97586946" y="859602.1829727591" />
		<node id="C18K137" x="1060351.454756785" y="859329.223181976" />
		<node id="C18K141" x="1060191.0184598158" y="858868.8644495879" />
		<node id="C18K1412" x="1060374.0311645393" y="859311.5124519225" />
		<node id="C18K1413" x="1060275.6273730288" y="859114.1905030512" />
		<node id="C18K1414" x="1060300.0812341531" y="859108.0908917896" />
		<node id="C18K142" x="1060215.8435857827" y="858862.73515749" />
		<node id="C18K146" x="1060004.071484045" y="858335.26152975" />
		<node id="C18K150" x="1060030.8870169786" y="858358.0374308157" />
		<node id="C18K1682" x="1059795.3846958864" y="857694.6264765717" />
		<node id="C18K170" x="1059729.5477137982" y="857499.2892938107" />
		<node id="C18K1701" x="1059712.4087578068" y="857507.5438774809" />
		<node id="C18NA3N" x="1060868.377769657" y="874275.0192740702" />
		<node id="C18UJAV1" x="1060778.849779877" y="861987.0783734729" />
		<node id="C18UJAV2" x="1060792.763972212" y="862001.0627335975" />
		<node id="C1AK73B1" x="1057818.6533103175" y="866683.4516614502" />
		<node id="C1AOEK72" x="1057820.5871864343" y="866877.5254290433" />
		<node id="C1AOEK75" x="1057801.133894658" y="866542.081013636" />
		<node id="C1CK70" x="1058195.6489112265" y="866939.1928672427" />